*SPEF "ieee 1481-1999"
*DESIGN "tt_um_wokwi_347497504164545108"
*DATE "11:11:11 Fri 11 11, 1111"
*VENDOR "OpenRCX"
*PROGRAM "Parallel Extraction"
*VERSION "1.0"
*DESIGN_FLOW "NAME_SCOPE LOCAL" "PIN_CAP NONE"
*DIVIDER /
*DELIMITER :
*BUS_DELIMITER []
*T_UNIT 1 NS
*C_UNIT 1 PF
*R_UNIT 1 OHM
*L_UNIT 1 HENRY

*NAME_MAP
*3 clk
*4 ena
*5 rst_n
*6 ui_in[0]
*7 ui_in[1]
*8 ui_in[2]
*9 ui_in[3]
*10 ui_in[4]
*11 ui_in[5]
*12 ui_in[6]
*13 ui_in[7]
*14 uio_in[0]
*15 uio_in[1]
*16 uio_in[2]
*17 uio_in[3]
*18 uio_in[4]
*19 uio_in[5]
*20 uio_in[6]
*21 uio_in[7]
*22 net8
*23 net9
*24 net10
*25 net11
*26 net12
*27 net13
*28 net14
*29 net15
*30 net16
*31 net17
*32 net18
*33 net19
*34 net20
*35 net21
*36 net22
*37 net23
*38 uo_out[0]
*39 uo_out[1]
*40 uo_out[2]
*41 uo_out[3]
*42 uo_out[4]
*43 uo_out[5]
*44 uo_out[6]
*45 net24
*46 _000_
*47 _001_
*48 _002_
*49 _003_
*50 _004_
*51 _005_
*52 _006_
*53 _007_
*54 _008_
*55 _009_
*56 _010_
*57 _011_
*58 _012_
*59 _013_
*60 _014_
*61 _015_
*62 _016_
*63 _017_
*64 _018_
*65 _019_
*66 _020_
*67 _021_
*68 _022_
*69 _023_
*70 _024_
*71 _025_
*72 _026_
*73 _027_
*74 _028_
*75 _029_
*76 _030_
*77 _031_
*78 _032_
*79 _033_
*80 clknet_0_clk
*81 clknet_1_0__leaf_clk
*82 clknet_1_1__leaf_clk
*83 flipflop10\.d
*84 flipflop10\.q
*85 flipflop4\.d
*86 flipflop4\.q
*87 flipflop7\.clk
*88 flipflop7\.d
*89 flipflop7\.q
*90 flipflop8\.clk
*91 flipflop8\.d
*92 flipflop8\.q
*93 flipflop9\.clk
*94 flipflop9\.d
*95 flipflop9\.q
*96 gate103\.out
*97 gate112\.out
*98 gate114\.out
*99 gate116\.out
*100 gate75\.out
*101 gate80\.out
*102 gate94\.out
*103 net1
*104 net2
*105 net25
*106 net26
*107 net3
*108 net4
*109 net5
*110 net6
*111 net7
*112 FILLER_0_0_109
*113 FILLER_0_0_113
*114 FILLER_0_0_125
*115 FILLER_0_0_137
*116 FILLER_0_0_141
*117 FILLER_0_0_15
*118 FILLER_0_0_153
*119 FILLER_0_0_165
*120 FILLER_0_0_169
*121 FILLER_0_0_181
*122 FILLER_0_0_193
*123 FILLER_0_0_197
*124 FILLER_0_0_209
*125 FILLER_0_0_221
*126 FILLER_0_0_225
*127 FILLER_0_0_237
*128 FILLER_0_0_249
*129 FILLER_0_0_253
*130 FILLER_0_0_265
*131 FILLER_0_0_27
*132 FILLER_0_0_277
*133 FILLER_0_0_281
*134 FILLER_0_0_29
*135 FILLER_0_0_293
*136 FILLER_0_0_3
*137 FILLER_0_0_305
*138 FILLER_0_0_309
*139 FILLER_0_0_321
*140 FILLER_0_0_333
*141 FILLER_0_0_337
*142 FILLER_0_0_349
*143 FILLER_0_0_41
*144 FILLER_0_0_53
*145 FILLER_0_0_57
*146 FILLER_0_0_69
*147 FILLER_0_0_81
*148 FILLER_0_0_85
*149 FILLER_0_0_97
*150 FILLER_0_10_109
*151 FILLER_0_10_121
*152 FILLER_0_10_133
*153 FILLER_0_10_139
*154 FILLER_0_10_141
*155 FILLER_0_10_15
*156 FILLER_0_10_153
*157 FILLER_0_10_165
*158 FILLER_0_10_177
*159 FILLER_0_10_189
*160 FILLER_0_10_195
*161 FILLER_0_10_197
*162 FILLER_0_10_209
*163 FILLER_0_10_221
*164 FILLER_0_10_233
*165 FILLER_0_10_245
*166 FILLER_0_10_251
*167 FILLER_0_10_253
*168 FILLER_0_10_265
*169 FILLER_0_10_27
*170 FILLER_0_10_277
*171 FILLER_0_10_289
*172 FILLER_0_10_29
*173 FILLER_0_10_3
*174 FILLER_0_10_301
*175 FILLER_0_10_307
*176 FILLER_0_10_309
*177 FILLER_0_10_321
*178 FILLER_0_10_333
*179 FILLER_0_10_345
*180 FILLER_0_10_41
*181 FILLER_0_10_53
*182 FILLER_0_10_65
*183 FILLER_0_10_77
*184 FILLER_0_10_83
*185 FILLER_0_10_85
*186 FILLER_0_10_97
*187 FILLER_0_11_105
*188 FILLER_0_11_111
*189 FILLER_0_11_113
*190 FILLER_0_11_125
*191 FILLER_0_11_137
*192 FILLER_0_11_149
*193 FILLER_0_11_15
*194 FILLER_0_11_161
*195 FILLER_0_11_167
*196 FILLER_0_11_169
*197 FILLER_0_11_181
*198 FILLER_0_11_193
*199 FILLER_0_11_205
*200 FILLER_0_11_217
*201 FILLER_0_11_223
*202 FILLER_0_11_225
*203 FILLER_0_11_237
*204 FILLER_0_11_249
*205 FILLER_0_11_261
*206 FILLER_0_11_27
*207 FILLER_0_11_273
*208 FILLER_0_11_279
*209 FILLER_0_11_281
*210 FILLER_0_11_293
*211 FILLER_0_11_3
*212 FILLER_0_11_305
*213 FILLER_0_11_317
*214 FILLER_0_11_329
*215 FILLER_0_11_335
*216 FILLER_0_11_337
*217 FILLER_0_11_349
*218 FILLER_0_11_39
*219 FILLER_0_11_51
*220 FILLER_0_11_55
*221 FILLER_0_11_57
*222 FILLER_0_11_69
*223 FILLER_0_11_81
*224 FILLER_0_11_93
*225 FILLER_0_12_109
*226 FILLER_0_12_121
*227 FILLER_0_12_133
*228 FILLER_0_12_139
*229 FILLER_0_12_141
*230 FILLER_0_12_15
*231 FILLER_0_12_153
*232 FILLER_0_12_165
*233 FILLER_0_12_177
*234 FILLER_0_12_189
*235 FILLER_0_12_195
*236 FILLER_0_12_197
*237 FILLER_0_12_209
*238 FILLER_0_12_221
*239 FILLER_0_12_233
*240 FILLER_0_12_245
*241 FILLER_0_12_251
*242 FILLER_0_12_253
*243 FILLER_0_12_265
*244 FILLER_0_12_27
*245 FILLER_0_12_277
*246 FILLER_0_12_289
*247 FILLER_0_12_29
*248 FILLER_0_12_3
*249 FILLER_0_12_301
*250 FILLER_0_12_307
*251 FILLER_0_12_309
*252 FILLER_0_12_321
*253 FILLER_0_12_333
*254 FILLER_0_12_345
*255 FILLER_0_12_41
*256 FILLER_0_12_53
*257 FILLER_0_12_65
*258 FILLER_0_12_77
*259 FILLER_0_12_83
*260 FILLER_0_12_85
*261 FILLER_0_12_97
*262 FILLER_0_13_105
*263 FILLER_0_13_111
*264 FILLER_0_13_113
*265 FILLER_0_13_125
*266 FILLER_0_13_137
*267 FILLER_0_13_149
*268 FILLER_0_13_15
*269 FILLER_0_13_161
*270 FILLER_0_13_167
*271 FILLER_0_13_169
*272 FILLER_0_13_181
*273 FILLER_0_13_193
*274 FILLER_0_13_205
*275 FILLER_0_13_217
*276 FILLER_0_13_223
*277 FILLER_0_13_225
*278 FILLER_0_13_237
*279 FILLER_0_13_249
*280 FILLER_0_13_261
*281 FILLER_0_13_27
*282 FILLER_0_13_273
*283 FILLER_0_13_279
*284 FILLER_0_13_281
*285 FILLER_0_13_293
*286 FILLER_0_13_3
*287 FILLER_0_13_305
*288 FILLER_0_13_317
*289 FILLER_0_13_329
*290 FILLER_0_13_335
*291 FILLER_0_13_337
*292 FILLER_0_13_349
*293 FILLER_0_13_39
*294 FILLER_0_13_51
*295 FILLER_0_13_55
*296 FILLER_0_13_57
*297 FILLER_0_13_69
*298 FILLER_0_13_81
*299 FILLER_0_13_93
*300 FILLER_0_14_109
*301 FILLER_0_14_121
*302 FILLER_0_14_133
*303 FILLER_0_14_139
*304 FILLER_0_14_141
*305 FILLER_0_14_15
*306 FILLER_0_14_153
*307 FILLER_0_14_165
*308 FILLER_0_14_177
*309 FILLER_0_14_189
*310 FILLER_0_14_195
*311 FILLER_0_14_197
*312 FILLER_0_14_209
*313 FILLER_0_14_221
*314 FILLER_0_14_233
*315 FILLER_0_14_245
*316 FILLER_0_14_251
*317 FILLER_0_14_253
*318 FILLER_0_14_265
*319 FILLER_0_14_27
*320 FILLER_0_14_277
*321 FILLER_0_14_289
*322 FILLER_0_14_29
*323 FILLER_0_14_3
*324 FILLER_0_14_301
*325 FILLER_0_14_307
*326 FILLER_0_14_309
*327 FILLER_0_14_321
*328 FILLER_0_14_333
*329 FILLER_0_14_345
*330 FILLER_0_14_41
*331 FILLER_0_14_53
*332 FILLER_0_14_65
*333 FILLER_0_14_77
*334 FILLER_0_14_83
*335 FILLER_0_14_85
*336 FILLER_0_14_97
*337 FILLER_0_15_105
*338 FILLER_0_15_111
*339 FILLER_0_15_113
*340 FILLER_0_15_125
*341 FILLER_0_15_137
*342 FILLER_0_15_149
*343 FILLER_0_15_15
*344 FILLER_0_15_161
*345 FILLER_0_15_167
*346 FILLER_0_15_169
*347 FILLER_0_15_181
*348 FILLER_0_15_193
*349 FILLER_0_15_205
*350 FILLER_0_15_217
*351 FILLER_0_15_223
*352 FILLER_0_15_225
*353 FILLER_0_15_237
*354 FILLER_0_15_249
*355 FILLER_0_15_261
*356 FILLER_0_15_27
*357 FILLER_0_15_273
*358 FILLER_0_15_279
*359 FILLER_0_15_281
*360 FILLER_0_15_293
*361 FILLER_0_15_3
*362 FILLER_0_15_305
*363 FILLER_0_15_317
*364 FILLER_0_15_329
*365 FILLER_0_15_335
*366 FILLER_0_15_337
*367 FILLER_0_15_349
*368 FILLER_0_15_39
*369 FILLER_0_15_51
*370 FILLER_0_15_55
*371 FILLER_0_15_57
*372 FILLER_0_15_69
*373 FILLER_0_15_81
*374 FILLER_0_15_93
*375 FILLER_0_16_109
*376 FILLER_0_16_121
*377 FILLER_0_16_133
*378 FILLER_0_16_139
*379 FILLER_0_16_141
*380 FILLER_0_16_15
*381 FILLER_0_16_153
*382 FILLER_0_16_165
*383 FILLER_0_16_177
*384 FILLER_0_16_189
*385 FILLER_0_16_195
*386 FILLER_0_16_197
*387 FILLER_0_16_209
*388 FILLER_0_16_221
*389 FILLER_0_16_233
*390 FILLER_0_16_245
*391 FILLER_0_16_251
*392 FILLER_0_16_253
*393 FILLER_0_16_265
*394 FILLER_0_16_27
*395 FILLER_0_16_277
*396 FILLER_0_16_289
*397 FILLER_0_16_29
*398 FILLER_0_16_3
*399 FILLER_0_16_301
*400 FILLER_0_16_307
*401 FILLER_0_16_309
*402 FILLER_0_16_321
*403 FILLER_0_16_333
*404 FILLER_0_16_345
*405 FILLER_0_16_41
*406 FILLER_0_16_53
*407 FILLER_0_16_65
*408 FILLER_0_16_77
*409 FILLER_0_16_83
*410 FILLER_0_16_85
*411 FILLER_0_16_97
*412 FILLER_0_17_105
*413 FILLER_0_17_111
*414 FILLER_0_17_113
*415 FILLER_0_17_125
*416 FILLER_0_17_137
*417 FILLER_0_17_149
*418 FILLER_0_17_15
*419 FILLER_0_17_161
*420 FILLER_0_17_167
*421 FILLER_0_17_169
*422 FILLER_0_17_181
*423 FILLER_0_17_193
*424 FILLER_0_17_205
*425 FILLER_0_17_217
*426 FILLER_0_17_223
*427 FILLER_0_17_225
*428 FILLER_0_17_237
*429 FILLER_0_17_249
*430 FILLER_0_17_261
*431 FILLER_0_17_27
*432 FILLER_0_17_273
*433 FILLER_0_17_279
*434 FILLER_0_17_281
*435 FILLER_0_17_293
*436 FILLER_0_17_3
*437 FILLER_0_17_305
*438 FILLER_0_17_317
*439 FILLER_0_17_329
*440 FILLER_0_17_335
*441 FILLER_0_17_337
*442 FILLER_0_17_349
*443 FILLER_0_17_39
*444 FILLER_0_17_51
*445 FILLER_0_17_55
*446 FILLER_0_17_57
*447 FILLER_0_17_69
*448 FILLER_0_17_81
*449 FILLER_0_17_93
*450 FILLER_0_18_109
*451 FILLER_0_18_121
*452 FILLER_0_18_133
*453 FILLER_0_18_139
*454 FILLER_0_18_141
*455 FILLER_0_18_15
*456 FILLER_0_18_153
*457 FILLER_0_18_165
*458 FILLER_0_18_177
*459 FILLER_0_18_189
*460 FILLER_0_18_195
*461 FILLER_0_18_197
*462 FILLER_0_18_209
*463 FILLER_0_18_221
*464 FILLER_0_18_233
*465 FILLER_0_18_245
*466 FILLER_0_18_251
*467 FILLER_0_18_253
*468 FILLER_0_18_265
*469 FILLER_0_18_27
*470 FILLER_0_18_277
*471 FILLER_0_18_289
*472 FILLER_0_18_29
*473 FILLER_0_18_3
*474 FILLER_0_18_301
*475 FILLER_0_18_307
*476 FILLER_0_18_309
*477 FILLER_0_18_321
*478 FILLER_0_18_333
*479 FILLER_0_18_345
*480 FILLER_0_18_41
*481 FILLER_0_18_53
*482 FILLER_0_18_65
*483 FILLER_0_18_77
*484 FILLER_0_18_83
*485 FILLER_0_18_85
*486 FILLER_0_18_97
*487 FILLER_0_19_105
*488 FILLER_0_19_111
*489 FILLER_0_19_113
*490 FILLER_0_19_125
*491 FILLER_0_19_137
*492 FILLER_0_19_149
*493 FILLER_0_19_15
*494 FILLER_0_19_161
*495 FILLER_0_19_167
*496 FILLER_0_19_169
*497 FILLER_0_19_181
*498 FILLER_0_19_193
*499 FILLER_0_19_205
*500 FILLER_0_19_217
*501 FILLER_0_19_223
*502 FILLER_0_19_225
*503 FILLER_0_19_237
*504 FILLER_0_19_249
*505 FILLER_0_19_261
*506 FILLER_0_19_27
*507 FILLER_0_19_273
*508 FILLER_0_19_279
*509 FILLER_0_19_281
*510 FILLER_0_19_293
*511 FILLER_0_19_3
*512 FILLER_0_19_305
*513 FILLER_0_19_317
*514 FILLER_0_19_329
*515 FILLER_0_19_335
*516 FILLER_0_19_337
*517 FILLER_0_19_349
*518 FILLER_0_19_39
*519 FILLER_0_19_51
*520 FILLER_0_19_55
*521 FILLER_0_19_57
*522 FILLER_0_19_69
*523 FILLER_0_19_81
*524 FILLER_0_19_93
*525 FILLER_0_1_105
*526 FILLER_0_1_111
*527 FILLER_0_1_113
*528 FILLER_0_1_125
*529 FILLER_0_1_137
*530 FILLER_0_1_149
*531 FILLER_0_1_15
*532 FILLER_0_1_161
*533 FILLER_0_1_167
*534 FILLER_0_1_169
*535 FILLER_0_1_181
*536 FILLER_0_1_193
*537 FILLER_0_1_205
*538 FILLER_0_1_217
*539 FILLER_0_1_223
*540 FILLER_0_1_225
*541 FILLER_0_1_237
*542 FILLER_0_1_249
*543 FILLER_0_1_261
*544 FILLER_0_1_27
*545 FILLER_0_1_273
*546 FILLER_0_1_279
*547 FILLER_0_1_281
*548 FILLER_0_1_293
*549 FILLER_0_1_3
*550 FILLER_0_1_305
*551 FILLER_0_1_317
*552 FILLER_0_1_329
*553 FILLER_0_1_335
*554 FILLER_0_1_337
*555 FILLER_0_1_349
*556 FILLER_0_1_39
*557 FILLER_0_1_51
*558 FILLER_0_1_55
*559 FILLER_0_1_57
*560 FILLER_0_1_69
*561 FILLER_0_1_81
*562 FILLER_0_1_93
*563 FILLER_0_20_109
*564 FILLER_0_20_121
*565 FILLER_0_20_133
*566 FILLER_0_20_139
*567 FILLER_0_20_141
*568 FILLER_0_20_15
*569 FILLER_0_20_153
*570 FILLER_0_20_165
*571 FILLER_0_20_177
*572 FILLER_0_20_189
*573 FILLER_0_20_195
*574 FILLER_0_20_197
*575 FILLER_0_20_209
*576 FILLER_0_20_221
*577 FILLER_0_20_233
*578 FILLER_0_20_245
*579 FILLER_0_20_251
*580 FILLER_0_20_253
*581 FILLER_0_20_265
*582 FILLER_0_20_27
*583 FILLER_0_20_277
*584 FILLER_0_20_289
*585 FILLER_0_20_29
*586 FILLER_0_20_3
*587 FILLER_0_20_301
*588 FILLER_0_20_307
*589 FILLER_0_20_309
*590 FILLER_0_20_321
*591 FILLER_0_20_333
*592 FILLER_0_20_345
*593 FILLER_0_20_41
*594 FILLER_0_20_53
*595 FILLER_0_20_65
*596 FILLER_0_20_77
*597 FILLER_0_20_83
*598 FILLER_0_20_85
*599 FILLER_0_20_97
*600 FILLER_0_21_105
*601 FILLER_0_21_111
*602 FILLER_0_21_113
*603 FILLER_0_21_125
*604 FILLER_0_21_137
*605 FILLER_0_21_149
*606 FILLER_0_21_15
*607 FILLER_0_21_161
*608 FILLER_0_21_167
*609 FILLER_0_21_169
*610 FILLER_0_21_181
*611 FILLER_0_21_193
*612 FILLER_0_21_205
*613 FILLER_0_21_217
*614 FILLER_0_21_223
*615 FILLER_0_21_225
*616 FILLER_0_21_237
*617 FILLER_0_21_249
*618 FILLER_0_21_261
*619 FILLER_0_21_27
*620 FILLER_0_21_273
*621 FILLER_0_21_279
*622 FILLER_0_21_281
*623 FILLER_0_21_293
*624 FILLER_0_21_3
*625 FILLER_0_21_305
*626 FILLER_0_21_317
*627 FILLER_0_21_329
*628 FILLER_0_21_335
*629 FILLER_0_21_337
*630 FILLER_0_21_349
*631 FILLER_0_21_39
*632 FILLER_0_21_51
*633 FILLER_0_21_55
*634 FILLER_0_21_57
*635 FILLER_0_21_69
*636 FILLER_0_21_81
*637 FILLER_0_21_93
*638 FILLER_0_22_109
*639 FILLER_0_22_121
*640 FILLER_0_22_133
*641 FILLER_0_22_139
*642 FILLER_0_22_141
*643 FILLER_0_22_15
*644 FILLER_0_22_153
*645 FILLER_0_22_165
*646 FILLER_0_22_177
*647 FILLER_0_22_189
*648 FILLER_0_22_195
*649 FILLER_0_22_197
*650 FILLER_0_22_209
*651 FILLER_0_22_221
*652 FILLER_0_22_233
*653 FILLER_0_22_245
*654 FILLER_0_22_251
*655 FILLER_0_22_253
*656 FILLER_0_22_265
*657 FILLER_0_22_27
*658 FILLER_0_22_277
*659 FILLER_0_22_289
*660 FILLER_0_22_29
*661 FILLER_0_22_3
*662 FILLER_0_22_301
*663 FILLER_0_22_307
*664 FILLER_0_22_309
*665 FILLER_0_22_321
*666 FILLER_0_22_333
*667 FILLER_0_22_345
*668 FILLER_0_22_41
*669 FILLER_0_22_53
*670 FILLER_0_22_65
*671 FILLER_0_22_77
*672 FILLER_0_22_83
*673 FILLER_0_22_85
*674 FILLER_0_22_97
*675 FILLER_0_23_105
*676 FILLER_0_23_111
*677 FILLER_0_23_113
*678 FILLER_0_23_125
*679 FILLER_0_23_137
*680 FILLER_0_23_149
*681 FILLER_0_23_15
*682 FILLER_0_23_161
*683 FILLER_0_23_167
*684 FILLER_0_23_169
*685 FILLER_0_23_181
*686 FILLER_0_23_193
*687 FILLER_0_23_205
*688 FILLER_0_23_217
*689 FILLER_0_23_223
*690 FILLER_0_23_225
*691 FILLER_0_23_237
*692 FILLER_0_23_249
*693 FILLER_0_23_261
*694 FILLER_0_23_27
*695 FILLER_0_23_273
*696 FILLER_0_23_279
*697 FILLER_0_23_281
*698 FILLER_0_23_293
*699 FILLER_0_23_3
*700 FILLER_0_23_305
*701 FILLER_0_23_317
*702 FILLER_0_23_329
*703 FILLER_0_23_335
*704 FILLER_0_23_337
*705 FILLER_0_23_349
*706 FILLER_0_23_39
*707 FILLER_0_23_51
*708 FILLER_0_23_55
*709 FILLER_0_23_57
*710 FILLER_0_23_69
*711 FILLER_0_23_81
*712 FILLER_0_23_93
*713 FILLER_0_24_109
*714 FILLER_0_24_121
*715 FILLER_0_24_133
*716 FILLER_0_24_139
*717 FILLER_0_24_141
*718 FILLER_0_24_15
*719 FILLER_0_24_153
*720 FILLER_0_24_165
*721 FILLER_0_24_177
*722 FILLER_0_24_189
*723 FILLER_0_24_195
*724 FILLER_0_24_197
*725 FILLER_0_24_209
*726 FILLER_0_24_221
*727 FILLER_0_24_233
*728 FILLER_0_24_245
*729 FILLER_0_24_251
*730 FILLER_0_24_253
*731 FILLER_0_24_265
*732 FILLER_0_24_27
*733 FILLER_0_24_277
*734 FILLER_0_24_289
*735 FILLER_0_24_29
*736 FILLER_0_24_3
*737 FILLER_0_24_301
*738 FILLER_0_24_307
*739 FILLER_0_24_309
*740 FILLER_0_24_321
*741 FILLER_0_24_333
*742 FILLER_0_24_345
*743 FILLER_0_24_41
*744 FILLER_0_24_53
*745 FILLER_0_24_65
*746 FILLER_0_24_77
*747 FILLER_0_24_83
*748 FILLER_0_24_85
*749 FILLER_0_24_97
*750 FILLER_0_25_105
*751 FILLER_0_25_111
*752 FILLER_0_25_113
*753 FILLER_0_25_125
*754 FILLER_0_25_137
*755 FILLER_0_25_149
*756 FILLER_0_25_15
*757 FILLER_0_25_161
*758 FILLER_0_25_167
*759 FILLER_0_25_169
*760 FILLER_0_25_181
*761 FILLER_0_25_193
*762 FILLER_0_25_205
*763 FILLER_0_25_217
*764 FILLER_0_25_223
*765 FILLER_0_25_225
*766 FILLER_0_25_237
*767 FILLER_0_25_249
*768 FILLER_0_25_261
*769 FILLER_0_25_27
*770 FILLER_0_25_273
*771 FILLER_0_25_279
*772 FILLER_0_25_281
*773 FILLER_0_25_293
*774 FILLER_0_25_3
*775 FILLER_0_25_305
*776 FILLER_0_25_317
*777 FILLER_0_25_329
*778 FILLER_0_25_335
*779 FILLER_0_25_337
*780 FILLER_0_25_349
*781 FILLER_0_25_39
*782 FILLER_0_25_51
*783 FILLER_0_25_55
*784 FILLER_0_25_57
*785 FILLER_0_25_69
*786 FILLER_0_25_81
*787 FILLER_0_25_93
*788 FILLER_0_26_109
*789 FILLER_0_26_121
*790 FILLER_0_26_133
*791 FILLER_0_26_139
*792 FILLER_0_26_141
*793 FILLER_0_26_15
*794 FILLER_0_26_153
*795 FILLER_0_26_165
*796 FILLER_0_26_177
*797 FILLER_0_26_189
*798 FILLER_0_26_195
*799 FILLER_0_26_197
*800 FILLER_0_26_209
*801 FILLER_0_26_221
*802 FILLER_0_26_233
*803 FILLER_0_26_245
*804 FILLER_0_26_251
*805 FILLER_0_26_253
*806 FILLER_0_26_265
*807 FILLER_0_26_27
*808 FILLER_0_26_277
*809 FILLER_0_26_289
*810 FILLER_0_26_29
*811 FILLER_0_26_3
*812 FILLER_0_26_301
*813 FILLER_0_26_307
*814 FILLER_0_26_309
*815 FILLER_0_26_321
*816 FILLER_0_26_333
*817 FILLER_0_26_345
*818 FILLER_0_26_41
*819 FILLER_0_26_53
*820 FILLER_0_26_65
*821 FILLER_0_26_77
*822 FILLER_0_26_83
*823 FILLER_0_26_85
*824 FILLER_0_26_97
*825 FILLER_0_27_105
*826 FILLER_0_27_111
*827 FILLER_0_27_113
*828 FILLER_0_27_125
*829 FILLER_0_27_137
*830 FILLER_0_27_149
*831 FILLER_0_27_15
*832 FILLER_0_27_161
*833 FILLER_0_27_167
*834 FILLER_0_27_169
*835 FILLER_0_27_181
*836 FILLER_0_27_193
*837 FILLER_0_27_205
*838 FILLER_0_27_217
*839 FILLER_0_27_223
*840 FILLER_0_27_225
*841 FILLER_0_27_237
*842 FILLER_0_27_249
*843 FILLER_0_27_261
*844 FILLER_0_27_27
*845 FILLER_0_27_273
*846 FILLER_0_27_279
*847 FILLER_0_27_281
*848 FILLER_0_27_293
*849 FILLER_0_27_3
*850 FILLER_0_27_305
*851 FILLER_0_27_317
*852 FILLER_0_27_329
*853 FILLER_0_27_335
*854 FILLER_0_27_337
*855 FILLER_0_27_349
*856 FILLER_0_27_39
*857 FILLER_0_27_51
*858 FILLER_0_27_55
*859 FILLER_0_27_57
*860 FILLER_0_27_69
*861 FILLER_0_27_81
*862 FILLER_0_27_93
*863 FILLER_0_28_109
*864 FILLER_0_28_121
*865 FILLER_0_28_133
*866 FILLER_0_28_139
*867 FILLER_0_28_141
*868 FILLER_0_28_15
*869 FILLER_0_28_153
*870 FILLER_0_28_165
*871 FILLER_0_28_177
*872 FILLER_0_28_189
*873 FILLER_0_28_195
*874 FILLER_0_28_197
*875 FILLER_0_28_209
*876 FILLER_0_28_221
*877 FILLER_0_28_233
*878 FILLER_0_28_245
*879 FILLER_0_28_251
*880 FILLER_0_28_253
*881 FILLER_0_28_265
*882 FILLER_0_28_27
*883 FILLER_0_28_277
*884 FILLER_0_28_289
*885 FILLER_0_28_29
*886 FILLER_0_28_3
*887 FILLER_0_28_301
*888 FILLER_0_28_307
*889 FILLER_0_28_309
*890 FILLER_0_28_321
*891 FILLER_0_28_333
*892 FILLER_0_28_345
*893 FILLER_0_28_41
*894 FILLER_0_28_53
*895 FILLER_0_28_65
*896 FILLER_0_28_77
*897 FILLER_0_28_83
*898 FILLER_0_28_85
*899 FILLER_0_28_97
*900 FILLER_0_29_105
*901 FILLER_0_29_111
*902 FILLER_0_29_113
*903 FILLER_0_29_125
*904 FILLER_0_29_137
*905 FILLER_0_29_149
*906 FILLER_0_29_15
*907 FILLER_0_29_161
*908 FILLER_0_29_167
*909 FILLER_0_29_169
*910 FILLER_0_29_181
*911 FILLER_0_29_193
*912 FILLER_0_29_205
*913 FILLER_0_29_217
*914 FILLER_0_29_223
*915 FILLER_0_29_225
*916 FILLER_0_29_237
*917 FILLER_0_29_249
*918 FILLER_0_29_261
*919 FILLER_0_29_27
*920 FILLER_0_29_273
*921 FILLER_0_29_279
*922 FILLER_0_29_281
*923 FILLER_0_29_293
*924 FILLER_0_29_3
*925 FILLER_0_29_305
*926 FILLER_0_29_317
*927 FILLER_0_29_329
*928 FILLER_0_29_335
*929 FILLER_0_29_337
*930 FILLER_0_29_349
*931 FILLER_0_29_39
*932 FILLER_0_29_51
*933 FILLER_0_29_55
*934 FILLER_0_29_57
*935 FILLER_0_29_69
*936 FILLER_0_29_81
*937 FILLER_0_29_93
*938 FILLER_0_2_109
*939 FILLER_0_2_121
*940 FILLER_0_2_133
*941 FILLER_0_2_139
*942 FILLER_0_2_141
*943 FILLER_0_2_15
*944 FILLER_0_2_153
*945 FILLER_0_2_165
*946 FILLER_0_2_177
*947 FILLER_0_2_189
*948 FILLER_0_2_195
*949 FILLER_0_2_197
*950 FILLER_0_2_209
*951 FILLER_0_2_221
*952 FILLER_0_2_233
*953 FILLER_0_2_245
*954 FILLER_0_2_251
*955 FILLER_0_2_253
*956 FILLER_0_2_265
*957 FILLER_0_2_27
*958 FILLER_0_2_277
*959 FILLER_0_2_289
*960 FILLER_0_2_29
*961 FILLER_0_2_3
*962 FILLER_0_2_301
*963 FILLER_0_2_307
*964 FILLER_0_2_309
*965 FILLER_0_2_321
*966 FILLER_0_2_333
*967 FILLER_0_2_345
*968 FILLER_0_2_41
*969 FILLER_0_2_53
*970 FILLER_0_2_65
*971 FILLER_0_2_77
*972 FILLER_0_2_83
*973 FILLER_0_2_85
*974 FILLER_0_2_97
*975 FILLER_0_30_109
*976 FILLER_0_30_121
*977 FILLER_0_30_133
*978 FILLER_0_30_139
*979 FILLER_0_30_141
*980 FILLER_0_30_15
*981 FILLER_0_30_153
*982 FILLER_0_30_165
*983 FILLER_0_30_177
*984 FILLER_0_30_189
*985 FILLER_0_30_195
*986 FILLER_0_30_197
*987 FILLER_0_30_209
*988 FILLER_0_30_221
*989 FILLER_0_30_233
*990 FILLER_0_30_245
*991 FILLER_0_30_251
*992 FILLER_0_30_253
*993 FILLER_0_30_265
*994 FILLER_0_30_27
*995 FILLER_0_30_277
*996 FILLER_0_30_289
*997 FILLER_0_30_29
*998 FILLER_0_30_3
*999 FILLER_0_30_301
*1000 FILLER_0_30_307
*1001 FILLER_0_30_309
*1002 FILLER_0_30_321
*1003 FILLER_0_30_333
*1004 FILLER_0_30_345
*1005 FILLER_0_30_41
*1006 FILLER_0_30_53
*1007 FILLER_0_30_65
*1008 FILLER_0_30_77
*1009 FILLER_0_30_83
*1010 FILLER_0_30_85
*1011 FILLER_0_30_97
*1012 FILLER_0_31_105
*1013 FILLER_0_31_111
*1014 FILLER_0_31_113
*1015 FILLER_0_31_125
*1016 FILLER_0_31_137
*1017 FILLER_0_31_149
*1018 FILLER_0_31_15
*1019 FILLER_0_31_161
*1020 FILLER_0_31_167
*1021 FILLER_0_31_169
*1022 FILLER_0_31_181
*1023 FILLER_0_31_193
*1024 FILLER_0_31_205
*1025 FILLER_0_31_217
*1026 FILLER_0_31_223
*1027 FILLER_0_31_225
*1028 FILLER_0_31_237
*1029 FILLER_0_31_249
*1030 FILLER_0_31_261
*1031 FILLER_0_31_27
*1032 FILLER_0_31_273
*1033 FILLER_0_31_279
*1034 FILLER_0_31_281
*1035 FILLER_0_31_293
*1036 FILLER_0_31_3
*1037 FILLER_0_31_305
*1038 FILLER_0_31_317
*1039 FILLER_0_31_329
*1040 FILLER_0_31_335
*1041 FILLER_0_31_337
*1042 FILLER_0_31_349
*1043 FILLER_0_31_39
*1044 FILLER_0_31_51
*1045 FILLER_0_31_55
*1046 FILLER_0_31_57
*1047 FILLER_0_31_69
*1048 FILLER_0_31_81
*1049 FILLER_0_31_93
*1050 FILLER_0_32_109
*1051 FILLER_0_32_121
*1052 FILLER_0_32_133
*1053 FILLER_0_32_139
*1054 FILLER_0_32_141
*1055 FILLER_0_32_15
*1056 FILLER_0_32_153
*1057 FILLER_0_32_165
*1058 FILLER_0_32_177
*1059 FILLER_0_32_189
*1060 FILLER_0_32_195
*1061 FILLER_0_32_197
*1062 FILLER_0_32_209
*1063 FILLER_0_32_221
*1064 FILLER_0_32_233
*1065 FILLER_0_32_245
*1066 FILLER_0_32_251
*1067 FILLER_0_32_253
*1068 FILLER_0_32_265
*1069 FILLER_0_32_27
*1070 FILLER_0_32_29
*1071 FILLER_0_32_297
*1072 FILLER_0_32_3
*1073 FILLER_0_32_305
*1074 FILLER_0_32_309
*1075 FILLER_0_32_321
*1076 FILLER_0_32_333
*1077 FILLER_0_32_345
*1078 FILLER_0_32_41
*1079 FILLER_0_32_53
*1080 FILLER_0_32_65
*1081 FILLER_0_32_77
*1082 FILLER_0_32_83
*1083 FILLER_0_32_85
*1084 FILLER_0_32_97
*1085 FILLER_0_33_105
*1086 FILLER_0_33_111
*1087 FILLER_0_33_113
*1088 FILLER_0_33_125
*1089 FILLER_0_33_137
*1090 FILLER_0_33_149
*1091 FILLER_0_33_15
*1092 FILLER_0_33_161
*1093 FILLER_0_33_167
*1094 FILLER_0_33_169
*1095 FILLER_0_33_181
*1096 FILLER_0_33_193
*1097 FILLER_0_33_205
*1098 FILLER_0_33_217
*1099 FILLER_0_33_223
*1100 FILLER_0_33_225
*1101 FILLER_0_33_237
*1102 FILLER_0_33_249
*1103 FILLER_0_33_261
*1104 FILLER_0_33_27
*1105 FILLER_0_33_273
*1106 FILLER_0_33_279
*1107 FILLER_0_33_281
*1108 FILLER_0_33_293
*1109 FILLER_0_33_3
*1110 FILLER_0_33_305
*1111 FILLER_0_33_317
*1112 FILLER_0_33_329
*1113 FILLER_0_33_335
*1114 FILLER_0_33_337
*1115 FILLER_0_33_349
*1116 FILLER_0_33_39
*1117 FILLER_0_33_51
*1118 FILLER_0_33_55
*1119 FILLER_0_33_57
*1120 FILLER_0_33_69
*1121 FILLER_0_33_81
*1122 FILLER_0_33_93
*1123 FILLER_0_34_109
*1124 FILLER_0_34_121
*1125 FILLER_0_34_133
*1126 FILLER_0_34_139
*1127 FILLER_0_34_141
*1128 FILLER_0_34_15
*1129 FILLER_0_34_153
*1130 FILLER_0_34_165
*1131 FILLER_0_34_177
*1132 FILLER_0_34_189
*1133 FILLER_0_34_195
*1134 FILLER_0_34_197
*1135 FILLER_0_34_209
*1136 FILLER_0_34_221
*1137 FILLER_0_34_233
*1138 FILLER_0_34_245
*1139 FILLER_0_34_251
*1140 FILLER_0_34_253
*1141 FILLER_0_34_265
*1142 FILLER_0_34_27
*1143 FILLER_0_34_277
*1144 FILLER_0_34_29
*1145 FILLER_0_34_292
*1146 FILLER_0_34_3
*1147 FILLER_0_34_304
*1148 FILLER_0_34_309
*1149 FILLER_0_34_317
*1150 FILLER_0_34_323
*1151 FILLER_0_34_335
*1152 FILLER_0_34_347
*1153 FILLER_0_34_41
*1154 FILLER_0_34_53
*1155 FILLER_0_34_65
*1156 FILLER_0_34_77
*1157 FILLER_0_34_83
*1158 FILLER_0_34_85
*1159 FILLER_0_34_97
*1160 FILLER_0_35_105
*1161 FILLER_0_35_111
*1162 FILLER_0_35_113
*1163 FILLER_0_35_125
*1164 FILLER_0_35_137
*1165 FILLER_0_35_149
*1166 FILLER_0_35_15
*1167 FILLER_0_35_161
*1168 FILLER_0_35_167
*1169 FILLER_0_35_176
*1170 FILLER_0_35_188
*1171 FILLER_0_35_200
*1172 FILLER_0_35_212
*1173 FILLER_0_35_225
*1174 FILLER_0_35_237
*1175 FILLER_0_35_249
*1176 FILLER_0_35_256
*1177 FILLER_0_35_268
*1178 FILLER_0_35_27
*1179 FILLER_0_35_281
*1180 FILLER_0_35_3
*1181 FILLER_0_35_331
*1182 FILLER_0_35_335
*1183 FILLER_0_35_337
*1184 FILLER_0_35_349
*1185 FILLER_0_35_39
*1186 FILLER_0_35_51
*1187 FILLER_0_35_55
*1188 FILLER_0_35_57
*1189 FILLER_0_35_69
*1190 FILLER_0_35_81
*1191 FILLER_0_35_93
*1192 FILLER_0_36_109
*1193 FILLER_0_36_121
*1194 FILLER_0_36_133
*1195 FILLER_0_36_139
*1196 FILLER_0_36_141
*1197 FILLER_0_36_15
*1198 FILLER_0_36_153
*1199 FILLER_0_36_164
*1200 FILLER_0_36_173
*1201 FILLER_0_36_190
*1202 FILLER_0_36_197
*1203 FILLER_0_36_213
*1204 FILLER_0_36_225
*1205 FILLER_0_36_229
*1206 FILLER_0_36_238
*1207 FILLER_0_36_246
*1208 FILLER_0_36_27
*1209 FILLER_0_36_279
*1210 FILLER_0_36_283
*1211 FILLER_0_36_29
*1212 FILLER_0_36_294
*1213 FILLER_0_36_3
*1214 FILLER_0_36_309
*1215 FILLER_0_36_350
*1216 FILLER_0_36_41
*1217 FILLER_0_36_53
*1218 FILLER_0_36_65
*1219 FILLER_0_36_77
*1220 FILLER_0_36_83
*1221 FILLER_0_36_85
*1222 FILLER_0_36_97
*1223 FILLER_0_37_105
*1224 FILLER_0_37_111
*1225 FILLER_0_37_113
*1226 FILLER_0_37_125
*1227 FILLER_0_37_137
*1228 FILLER_0_37_145
*1229 FILLER_0_37_15
*1230 FILLER_0_37_161
*1231 FILLER_0_37_169
*1232 FILLER_0_37_173
*1233 FILLER_0_37_182
*1234 FILLER_0_37_203
*1235 FILLER_0_37_222
*1236 FILLER_0_37_225
*1237 FILLER_0_37_231
*1238 FILLER_0_37_258
*1239 FILLER_0_37_264
*1240 FILLER_0_37_27
*1241 FILLER_0_37_3
*1242 FILLER_0_37_335
*1243 FILLER_0_37_345
*1244 FILLER_0_37_39
*1245 FILLER_0_37_51
*1246 FILLER_0_37_55
*1247 FILLER_0_37_57
*1248 FILLER_0_37_69
*1249 FILLER_0_37_81
*1250 FILLER_0_37_93
*1251 FILLER_0_38_102
*1252 FILLER_0_38_106
*1253 FILLER_0_38_110
*1254 FILLER_0_38_113
*1255 FILLER_0_38_118
*1256 FILLER_0_38_122
*1257 FILLER_0_38_126
*1258 FILLER_0_38_130
*1259 FILLER_0_38_134
*1260 FILLER_0_38_14
*1261 FILLER_0_38_144
*1262 FILLER_0_38_150
*1263 FILLER_0_38_156
*1264 FILLER_0_38_161
*1265 FILLER_0_38_167
*1266 FILLER_0_38_169
*1267 FILLER_0_38_173
*1268 FILLER_0_38_18
*1269 FILLER_0_38_180
*1270 FILLER_0_38_186
*1271 FILLER_0_38_193
*1272 FILLER_0_38_201
*1273 FILLER_0_38_210
*1274 FILLER_0_38_22
*1275 FILLER_0_38_222
*1276 FILLER_0_38_225
*1277 FILLER_0_38_236
*1278 FILLER_0_38_242
*1279 FILLER_0_38_251
*1280 FILLER_0_38_253
*1281 FILLER_0_38_259
*1282 FILLER_0_38_270
*1283 FILLER_0_38_274
*1284 FILLER_0_38_278
*1285 FILLER_0_38_289
*1286 FILLER_0_38_294
*1287 FILLER_0_38_3
*1288 FILLER_0_38_309
*1289 FILLER_0_38_32
*1290 FILLER_0_38_334
*1291 FILLER_0_38_349
*1292 FILLER_0_38_38
*1293 FILLER_0_38_42
*1294 FILLER_0_38_46
*1295 FILLER_0_38_50
*1296 FILLER_0_38_54
*1297 FILLER_0_38_57
*1298 FILLER_0_38_62
*1299 FILLER_0_38_66
*1300 FILLER_0_38_70
*1301 FILLER_0_38_74
*1302 FILLER_0_38_78
*1303 FILLER_0_38_88
*1304 FILLER_0_38_94
*1305 FILLER_0_38_98
*1306 FILLER_0_3_105
*1307 FILLER_0_3_111
*1308 FILLER_0_3_113
*1309 FILLER_0_3_125
*1310 FILLER_0_3_137
*1311 FILLER_0_3_149
*1312 FILLER_0_3_15
*1313 FILLER_0_3_161
*1314 FILLER_0_3_167
*1315 FILLER_0_3_169
*1316 FILLER_0_3_181
*1317 FILLER_0_3_193
*1318 FILLER_0_3_205
*1319 FILLER_0_3_217
*1320 FILLER_0_3_223
*1321 FILLER_0_3_225
*1322 FILLER_0_3_237
*1323 FILLER_0_3_249
*1324 FILLER_0_3_261
*1325 FILLER_0_3_27
*1326 FILLER_0_3_273
*1327 FILLER_0_3_279
*1328 FILLER_0_3_281
*1329 FILLER_0_3_293
*1330 FILLER_0_3_3
*1331 FILLER_0_3_305
*1332 FILLER_0_3_317
*1333 FILLER_0_3_329
*1334 FILLER_0_3_335
*1335 FILLER_0_3_337
*1336 FILLER_0_3_349
*1337 FILLER_0_3_39
*1338 FILLER_0_3_51
*1339 FILLER_0_3_55
*1340 FILLER_0_3_57
*1341 FILLER_0_3_69
*1342 FILLER_0_3_81
*1343 FILLER_0_3_93
*1344 FILLER_0_4_109
*1345 FILLER_0_4_121
*1346 FILLER_0_4_133
*1347 FILLER_0_4_139
*1348 FILLER_0_4_141
*1349 FILLER_0_4_15
*1350 FILLER_0_4_153
*1351 FILLER_0_4_165
*1352 FILLER_0_4_177
*1353 FILLER_0_4_189
*1354 FILLER_0_4_195
*1355 FILLER_0_4_197
*1356 FILLER_0_4_209
*1357 FILLER_0_4_221
*1358 FILLER_0_4_233
*1359 FILLER_0_4_245
*1360 FILLER_0_4_251
*1361 FILLER_0_4_253
*1362 FILLER_0_4_265
*1363 FILLER_0_4_27
*1364 FILLER_0_4_277
*1365 FILLER_0_4_289
*1366 FILLER_0_4_29
*1367 FILLER_0_4_3
*1368 FILLER_0_4_301
*1369 FILLER_0_4_307
*1370 FILLER_0_4_309
*1371 FILLER_0_4_321
*1372 FILLER_0_4_333
*1373 FILLER_0_4_345
*1374 FILLER_0_4_41
*1375 FILLER_0_4_53
*1376 FILLER_0_4_65
*1377 FILLER_0_4_77
*1378 FILLER_0_4_83
*1379 FILLER_0_4_85
*1380 FILLER_0_4_97
*1381 FILLER_0_5_105
*1382 FILLER_0_5_111
*1383 FILLER_0_5_113
*1384 FILLER_0_5_125
*1385 FILLER_0_5_137
*1386 FILLER_0_5_149
*1387 FILLER_0_5_15
*1388 FILLER_0_5_161
*1389 FILLER_0_5_167
*1390 FILLER_0_5_169
*1391 FILLER_0_5_181
*1392 FILLER_0_5_193
*1393 FILLER_0_5_205
*1394 FILLER_0_5_217
*1395 FILLER_0_5_223
*1396 FILLER_0_5_225
*1397 FILLER_0_5_237
*1398 FILLER_0_5_249
*1399 FILLER_0_5_261
*1400 FILLER_0_5_27
*1401 FILLER_0_5_273
*1402 FILLER_0_5_279
*1403 FILLER_0_5_281
*1404 FILLER_0_5_293
*1405 FILLER_0_5_3
*1406 FILLER_0_5_305
*1407 FILLER_0_5_317
*1408 FILLER_0_5_329
*1409 FILLER_0_5_335
*1410 FILLER_0_5_337
*1411 FILLER_0_5_349
*1412 FILLER_0_5_39
*1413 FILLER_0_5_51
*1414 FILLER_0_5_55
*1415 FILLER_0_5_57
*1416 FILLER_0_5_69
*1417 FILLER_0_5_81
*1418 FILLER_0_5_93
*1419 FILLER_0_6_109
*1420 FILLER_0_6_121
*1421 FILLER_0_6_133
*1422 FILLER_0_6_139
*1423 FILLER_0_6_141
*1424 FILLER_0_6_15
*1425 FILLER_0_6_153
*1426 FILLER_0_6_165
*1427 FILLER_0_6_177
*1428 FILLER_0_6_189
*1429 FILLER_0_6_195
*1430 FILLER_0_6_197
*1431 FILLER_0_6_209
*1432 FILLER_0_6_221
*1433 FILLER_0_6_233
*1434 FILLER_0_6_245
*1435 FILLER_0_6_251
*1436 FILLER_0_6_253
*1437 FILLER_0_6_265
*1438 FILLER_0_6_27
*1439 FILLER_0_6_277
*1440 FILLER_0_6_289
*1441 FILLER_0_6_29
*1442 FILLER_0_6_3
*1443 FILLER_0_6_301
*1444 FILLER_0_6_307
*1445 FILLER_0_6_309
*1446 FILLER_0_6_321
*1447 FILLER_0_6_333
*1448 FILLER_0_6_345
*1449 FILLER_0_6_41
*1450 FILLER_0_6_53
*1451 FILLER_0_6_65
*1452 FILLER_0_6_77
*1453 FILLER_0_6_83
*1454 FILLER_0_6_85
*1455 FILLER_0_6_97
*1456 FILLER_0_7_105
*1457 FILLER_0_7_111
*1458 FILLER_0_7_113
*1459 FILLER_0_7_125
*1460 FILLER_0_7_137
*1461 FILLER_0_7_149
*1462 FILLER_0_7_15
*1463 FILLER_0_7_161
*1464 FILLER_0_7_167
*1465 FILLER_0_7_169
*1466 FILLER_0_7_181
*1467 FILLER_0_7_193
*1468 FILLER_0_7_205
*1469 FILLER_0_7_217
*1470 FILLER_0_7_223
*1471 FILLER_0_7_225