*SPEF "ieee 1481-1999"
*DESIGN "tt_um_wokwi_370722051572189185"
*DATE "11:11:11 Fri 11 11, 1111"
*VENDOR "OpenRCX"
*PROGRAM "Parallel Extraction"
*VERSION "1.0"
*DESIGN_FLOW "NAME_SCOPE LOCAL" "PIN_CAP NONE"
*DIVIDER /
*DELIMITER :
*BUS_DELIMITER []
*T_UNIT 1 NS
*C_UNIT 1 PF
*R_UNIT 1 OHM
*L_UNIT 1 HENRY

*NAME_MAP
*3 clk
*4 ena
*5 rst_n
*6 ui_in[0]
*7 ui_in[1]
*8 ui_in[2]
*9 ui_in[3]
*10 ui_in[4]
*11 ui_in[5]
*12 ui_in[6]
*13 ui_in[7]
*14 uio_in[0]
*15 uio_in[1]
*16 uio_in[2]
*17 uio_in[3]
*18 uio_in[4]
*19 uio_in[5]
*20 uio_in[6]
*21 uio_in[7]
*22 net1
*23 net2
*24 net3
*25 net4
*26 net5
*27 net6
*28 net7
*29 net8
*30 net9
*31 net10
*32 net11
*33 net12
*34 net13
*35 net14
*36 net15
*37 net16
*38 uo_out[0]
*39 uo_out[1]
*40 uo_out[2]
*41 uo_out[3]
*42 uo_out[4]
*43 uo_out[5]
*44 uo_out[6]
*45 net17
*46 _00_
*47 _01_
*48 _02_
*49 _03_
*50 _04_
*51 _05_
*52 _06_
*53 _07_
*54 _08_
*55 _09_
*56 _10_
*57 _11_
*58 _12_
*59 _13_
*60 _14_
*61 _15_
*62 _16_
*63 _17_
*64 _18_
*65 _19_
*66 _20_
*67 and1\.a
*68 and1\.b
*69 and11\.b
*70 and15\.b
*71 and16\.a
*72 clknet_0_clk
*73 clknet_1_0__leaf_clk
*74 clknet_1_1__leaf_clk
*75 flop1\.d
*76 flop2\.d
*77 flop3\.d
*78 net18
*79 net19
*80 or13\.out
*81 or17\.out
*82 or20\.out
*83 or24\.out
*84 or28\.out
*85 or5\.out
*86 or9\.out
*87 FILLER_0_0_109
*88 FILLER_0_0_113
*89 FILLER_0_0_125
*90 FILLER_0_0_137
*91 FILLER_0_0_141
*92 FILLER_0_0_15
*93 FILLER_0_0_153
*94 FILLER_0_0_165
*95 FILLER_0_0_169
*96 FILLER_0_0_181
*97 FILLER_0_0_193
*98 FILLER_0_0_197
*99 FILLER_0_0_209
*100 FILLER_0_0_221
*101 FILLER_0_0_225
*102 FILLER_0_0_237
*103 FILLER_0_0_249
*104 FILLER_0_0_253
*105 FILLER_0_0_265
*106 FILLER_0_0_27
*107 FILLER_0_0_277
*108 FILLER_0_0_281
*109 FILLER_0_0_29
*110 FILLER_0_0_293
*111 FILLER_0_0_3
*112 FILLER_0_0_305
*113 FILLER_0_0_309
*114 FILLER_0_0_321
*115 FILLER_0_0_333
*116 FILLER_0_0_337
*117 FILLER_0_0_349
*118 FILLER_0_0_41
*119 FILLER_0_0_53
*120 FILLER_0_0_57
*121 FILLER_0_0_69
*122 FILLER_0_0_81
*123 FILLER_0_0_85
*124 FILLER_0_0_97
*125 FILLER_0_10_109
*126 FILLER_0_10_121
*127 FILLER_0_10_133
*128 FILLER_0_10_139
*129 FILLER_0_10_141
*130 FILLER_0_10_15
*131 FILLER_0_10_153
*132 FILLER_0_10_165
*133 FILLER_0_10_177
*134 FILLER_0_10_189
*135 FILLER_0_10_195
*136 FILLER_0_10_197
*137 FILLER_0_10_209
*138 FILLER_0_10_221
*139 FILLER_0_10_233
*140 FILLER_0_10_245
*141 FILLER_0_10_251
*142 FILLER_0_10_253
*143 FILLER_0_10_265
*144 FILLER_0_10_27
*145 FILLER_0_10_277
*146 FILLER_0_10_289
*147 FILLER_0_10_29
*148 FILLER_0_10_3
*149 FILLER_0_10_301
*150 FILLER_0_10_307
*151 FILLER_0_10_309
*152 FILLER_0_10_321
*153 FILLER_0_10_333
*154 FILLER_0_10_345
*155 FILLER_0_10_41
*156 FILLER_0_10_53
*157 FILLER_0_10_65
*158 FILLER_0_10_77
*159 FILLER_0_10_83
*160 FILLER_0_10_85
*161 FILLER_0_10_97
*162 FILLER_0_11_105
*163 FILLER_0_11_111
*164 FILLER_0_11_113
*165 FILLER_0_11_125
*166 FILLER_0_11_137
*167 FILLER_0_11_149
*168 FILLER_0_11_15
*169 FILLER_0_11_161
*170 FILLER_0_11_167
*171 FILLER_0_11_169
*172 FILLER_0_11_181
*173 FILLER_0_11_193
*174 FILLER_0_11_205
*175 FILLER_0_11_217
*176 FILLER_0_11_223
*177 FILLER_0_11_225
*178 FILLER_0_11_237
*179 FILLER_0_11_249
*180 FILLER_0_11_261
*181 FILLER_0_11_27
*182 FILLER_0_11_273
*183 FILLER_0_11_279
*184 FILLER_0_11_281
*185 FILLER_0_11_293
*186 FILLER_0_11_3
*187 FILLER_0_11_305
*188 FILLER_0_11_317
*189 FILLER_0_11_329
*190 FILLER_0_11_335
*191 FILLER_0_11_337
*192 FILLER_0_11_349
*193 FILLER_0_11_39
*194 FILLER_0_11_51
*195 FILLER_0_11_55
*196 FILLER_0_11_57
*197 FILLER_0_11_69
*198 FILLER_0_11_81
*199 FILLER_0_11_93
*200 FILLER_0_12_109
*201 FILLER_0_12_121
*202 FILLER_0_12_133
*203 FILLER_0_12_139
*204 FILLER_0_12_141
*205 FILLER_0_12_15
*206 FILLER_0_12_153
*207 FILLER_0_12_165
*208 FILLER_0_12_177
*209 FILLER_0_12_189
*210 FILLER_0_12_195
*211 FILLER_0_12_197
*212 FILLER_0_12_209
*213 FILLER_0_12_221
*214 FILLER_0_12_233
*215 FILLER_0_12_245
*216 FILLER_0_12_251
*217 FILLER_0_12_253
*218 FILLER_0_12_265
*219 FILLER_0_12_27
*220 FILLER_0_12_277
*221 FILLER_0_12_289
*222 FILLER_0_12_29
*223 FILLER_0_12_3
*224 FILLER_0_12_301
*225 FILLER_0_12_307
*226 FILLER_0_12_309
*227 FILLER_0_12_321
*228 FILLER_0_12_333
*229 FILLER_0_12_345
*230 FILLER_0_12_41
*231 FILLER_0_12_53
*232 FILLER_0_12_65
*233 FILLER_0_12_77
*234 FILLER_0_12_83
*235 FILLER_0_12_85
*236 FILLER_0_12_97
*237 FILLER_0_13_105
*238 FILLER_0_13_111
*239 FILLER_0_13_113
*240 FILLER_0_13_125
*241 FILLER_0_13_137
*242 FILLER_0_13_149
*243 FILLER_0_13_15
*244 FILLER_0_13_161
*245 FILLER_0_13_167
*246 FILLER_0_13_169
*247 FILLER_0_13_181
*248 FILLER_0_13_193
*249 FILLER_0_13_205
*250 FILLER_0_13_217
*251 FILLER_0_13_223
*252 FILLER_0_13_225
*253 FILLER_0_13_237
*254 FILLER_0_13_249
*255 FILLER_0_13_261
*256 FILLER_0_13_27
*257 FILLER_0_13_273
*258 FILLER_0_13_279
*259 FILLER_0_13_281
*260 FILLER_0_13_293
*261 FILLER_0_13_3
*262 FILLER_0_13_305
*263 FILLER_0_13_317
*264 FILLER_0_13_329
*265 FILLER_0_13_335
*266 FILLER_0_13_337
*267 FILLER_0_13_349
*268 FILLER_0_13_39
*269 FILLER_0_13_51
*270 FILLER_0_13_55
*271 FILLER_0_13_57
*272 FILLER_0_13_69
*273 FILLER_0_13_81
*274 FILLER_0_13_93
*275 FILLER_0_14_109
*276 FILLER_0_14_121
*277 FILLER_0_14_133
*278 FILLER_0_14_139
*279 FILLER_0_14_141
*280 FILLER_0_14_15
*281 FILLER_0_14_153
*282 FILLER_0_14_165
*283 FILLER_0_14_177
*284 FILLER_0_14_189
*285 FILLER_0_14_195
*286 FILLER_0_14_197
*287 FILLER_0_14_209
*288 FILLER_0_14_221
*289 FILLER_0_14_233
*290 FILLER_0_14_245
*291 FILLER_0_14_251
*292 FILLER_0_14_253
*293 FILLER_0_14_265
*294 FILLER_0_14_27
*295 FILLER_0_14_277
*296 FILLER_0_14_289
*297 FILLER_0_14_29
*298 FILLER_0_14_3
*299 FILLER_0_14_301
*300 FILLER_0_14_307
*301 FILLER_0_14_309
*302 FILLER_0_14_321
*303 FILLER_0_14_333
*304 FILLER_0_14_345
*305 FILLER_0_14_41
*306 FILLER_0_14_53
*307 FILLER_0_14_65
*308 FILLER_0_14_77
*309 FILLER_0_14_83
*310 FILLER_0_14_85
*311 FILLER_0_14_97
*312 FILLER_0_15_105
*313 FILLER_0_15_111
*314 FILLER_0_15_113
*315 FILLER_0_15_125
*316 FILLER_0_15_137
*317 FILLER_0_15_149
*318 FILLER_0_15_15
*319 FILLER_0_15_161
*320 FILLER_0_15_167
*321 FILLER_0_15_169
*322 FILLER_0_15_181
*323 FILLER_0_15_193
*324 FILLER_0_15_205
*325 FILLER_0_15_217
*326 FILLER_0_15_223
*327 FILLER_0_15_225
*328 FILLER_0_15_237
*329 FILLER_0_15_249
*330 FILLER_0_15_261
*331 FILLER_0_15_27
*332 FILLER_0_15_273
*333 FILLER_0_15_279
*334 FILLER_0_15_281
*335 FILLER_0_15_293
*336 FILLER_0_15_3
*337 FILLER_0_15_305
*338 FILLER_0_15_317
*339 FILLER_0_15_329
*340 FILLER_0_15_335
*341 FILLER_0_15_337
*342 FILLER_0_15_349
*343 FILLER_0_15_39
*344 FILLER_0_15_51
*345 FILLER_0_15_55
*346 FILLER_0_15_57
*347 FILLER_0_15_69
*348 FILLER_0_15_81
*349 FILLER_0_15_93
*350 FILLER_0_16_109
*351 FILLER_0_16_121
*352 FILLER_0_16_133
*353 FILLER_0_16_139
*354 FILLER_0_16_141
*355 FILLER_0_16_15
*356 FILLER_0_16_153
*357 FILLER_0_16_165
*358 FILLER_0_16_177
*359 FILLER_0_16_189
*360 FILLER_0_16_195
*361 FILLER_0_16_197
*362 FILLER_0_16_209
*363 FILLER_0_16_221
*364 FILLER_0_16_233
*365 FILLER_0_16_245
*366 FILLER_0_16_251
*367 FILLER_0_16_253
*368 FILLER_0_16_265
*369 FILLER_0_16_27
*370 FILLER_0_16_277
*371 FILLER_0_16_289
*372 FILLER_0_16_29
*373 FILLER_0_16_3
*374 FILLER_0_16_301
*375 FILLER_0_16_307
*376 FILLER_0_16_309
*377 FILLER_0_16_321
*378 FILLER_0_16_333
*379 FILLER_0_16_345
*380 FILLER_0_16_41
*381 FILLER_0_16_53
*382 FILLER_0_16_65
*383 FILLER_0_16_77
*384 FILLER_0_16_83
*385 FILLER_0_16_85
*386 FILLER_0_16_97
*387 FILLER_0_17_105
*388 FILLER_0_17_111
*389 FILLER_0_17_113
*390 FILLER_0_17_125
*391 FILLER_0_17_137
*392 FILLER_0_17_149
*393 FILLER_0_17_15
*394 FILLER_0_17_161
*395 FILLER_0_17_167
*396 FILLER_0_17_169
*397 FILLER_0_17_181
*398 FILLER_0_17_193
*399 FILLER_0_17_205
*400 FILLER_0_17_217
*401 FILLER_0_17_223
*402 FILLER_0_17_225
*403 FILLER_0_17_237
*404 FILLER_0_17_249
*405 FILLER_0_17_261
*406 FILLER_0_17_27
*407 FILLER_0_17_273
*408 FILLER_0_17_279
*409 FILLER_0_17_281
*410 FILLER_0_17_293
*411 FILLER_0_17_3
*412 FILLER_0_17_305
*413 FILLER_0_17_317
*414 FILLER_0_17_329
*415 FILLER_0_17_335
*416 FILLER_0_17_337
*417 FILLER_0_17_349
*418 FILLER_0_17_39
*419 FILLER_0_17_51
*420 FILLER_0_17_55
*421 FILLER_0_17_57
*422 FILLER_0_17_69
*423 FILLER_0_17_81
*424 FILLER_0_17_93
*425 FILLER_0_18_109
*426 FILLER_0_18_121
*427 FILLER_0_18_133
*428 FILLER_0_18_139
*429 FILLER_0_18_141
*430 FILLER_0_18_15
*431 FILLER_0_18_153
*432 FILLER_0_18_165
*433 FILLER_0_18_177
*434 FILLER_0_18_189
*435 FILLER_0_18_195
*436 FILLER_0_18_197
*437 FILLER_0_18_209
*438 FILLER_0_18_221
*439 FILLER_0_18_233
*440 FILLER_0_18_245
*441 FILLER_0_18_251
*442 FILLER_0_18_253
*443 FILLER_0_18_265
*444 FILLER_0_18_27
*445 FILLER_0_18_277
*446 FILLER_0_18_289
*447 FILLER_0_18_29
*448 FILLER_0_18_3
*449 FILLER_0_18_301
*450 FILLER_0_18_307
*451 FILLER_0_18_309
*452 FILLER_0_18_321
*453 FILLER_0_18_333
*454 FILLER_0_18_345
*455 FILLER_0_18_41
*456 FILLER_0_18_53
*457 FILLER_0_18_65
*458 FILLER_0_18_77
*459 FILLER_0_18_83
*460 FILLER_0_18_85
*461 FILLER_0_18_97
*462 FILLER_0_19_105
*463 FILLER_0_19_111
*464 FILLER_0_19_113
*465 FILLER_0_19_125
*466 FILLER_0_19_137
*467 FILLER_0_19_149
*468 FILLER_0_19_15
*469 FILLER_0_19_161
*470 FILLER_0_19_167
*471 FILLER_0_19_169
*472 FILLER_0_19_181
*473 FILLER_0_19_193
*474 FILLER_0_19_205
*475 FILLER_0_19_217
*476 FILLER_0_19_223
*477 FILLER_0_19_225
*478 FILLER_0_19_237
*479 FILLER_0_19_249
*480 FILLER_0_19_261
*481 FILLER_0_19_27
*482 FILLER_0_19_273
*483 FILLER_0_19_279
*484 FILLER_0_19_281
*485 FILLER_0_19_293
*486 FILLER_0_19_3
*487 FILLER_0_19_305
*488 FILLER_0_19_317
*489 FILLER_0_19_329
*490 FILLER_0_19_335
*491 FILLER_0_19_337
*492 FILLER_0_19_349
*493 FILLER_0_19_39
*494 FILLER_0_19_51
*495 FILLER_0_19_55
*496 FILLER_0_19_57
*497 FILLER_0_19_69
*498 FILLER_0_19_81
*499 FILLER_0_19_93
*500 FILLER_0_1_105
*501 FILLER_0_1_111
*502 FILLER_0_1_113
*503 FILLER_0_1_125
*504 FILLER_0_1_137
*505 FILLER_0_1_149
*506 FILLER_0_1_15
*507 FILLER_0_1_161
*508 FILLER_0_1_167
*509 FILLER_0_1_169
*510 FILLER_0_1_181
*511 FILLER_0_1_193
*512 FILLER_0_1_205
*513 FILLER_0_1_217
*514 FILLER_0_1_223
*515 FILLER_0_1_225
*516 FILLER_0_1_237
*517 FILLER_0_1_249
*518 FILLER_0_1_261
*519 FILLER_0_1_27
*520 FILLER_0_1_273
*521 FILLER_0_1_279
*522 FILLER_0_1_281
*523 FILLER_0_1_293
*524 FILLER_0_1_3
*525 FILLER_0_1_305
*526 FILLER_0_1_317
*527 FILLER_0_1_329
*528 FILLER_0_1_335
*529 FILLER_0_1_337
*530 FILLER_0_1_349
*531 FILLER_0_1_39
*532 FILLER_0_1_51
*533 FILLER_0_1_55
*534 FILLER_0_1_57
*535 FILLER_0_1_69
*536 FILLER_0_1_81
*537 FILLER_0_1_93
*538 FILLER_0_20_109
*539 FILLER_0_20_121
*540 FILLER_0_20_133
*541 FILLER_0_20_139
*542 FILLER_0_20_141
*543 FILLER_0_20_15
*544 FILLER_0_20_153
*545 FILLER_0_20_165
*546 FILLER_0_20_177
*547 FILLER_0_20_189
*548 FILLER_0_20_195
*549 FILLER_0_20_197
*550 FILLER_0_20_209
*551 FILLER_0_20_221
*552 FILLER_0_20_233
*553 FILLER_0_20_245
*554 FILLER_0_20_251
*555 FILLER_0_20_253
*556 FILLER_0_20_265
*557 FILLER_0_20_27
*558 FILLER_0_20_277
*559 FILLER_0_20_289
*560 FILLER_0_20_29
*561 FILLER_0_20_3
*562 FILLER_0_20_301
*563 FILLER_0_20_307
*564 FILLER_0_20_309
*565 FILLER_0_20_321
*566 FILLER_0_20_333
*567 FILLER_0_20_345
*568 FILLER_0_20_41
*569 FILLER_0_20_53
*570 FILLER_0_20_65
*571 FILLER_0_20_77
*572 FILLER_0_20_83
*573 FILLER_0_20_85
*574 FILLER_0_20_97
*575 FILLER_0_21_105
*576 FILLER_0_21_111
*577 FILLER_0_21_113
*578 FILLER_0_21_125
*579 FILLER_0_21_137
*580 FILLER_0_21_149
*581 FILLER_0_21_15
*582 FILLER_0_21_161
*583 FILLER_0_21_167
*584 FILLER_0_21_169
*585 FILLER_0_21_181
*586 FILLER_0_21_193
*587 FILLER_0_21_205
*588 FILLER_0_21_217
*589 FILLER_0_21_223
*590 FILLER_0_21_225
*591 FILLER_0_21_237
*592 FILLER_0_21_249
*593 FILLER_0_21_261
*594 FILLER_0_21_27
*595 FILLER_0_21_273
*596 FILLER_0_21_279
*597 FILLER_0_21_281
*598 FILLER_0_21_293
*599 FILLER_0_21_3
*600 FILLER_0_21_305
*601 FILLER_0_21_317
*602 FILLER_0_21_329
*603 FILLER_0_21_335
*604 FILLER_0_21_337
*605 FILLER_0_21_349
*606 FILLER_0_21_39
*607 FILLER_0_21_51
*608 FILLER_0_21_55
*609 FILLER_0_21_57
*610 FILLER_0_21_69
*611 FILLER_0_21_81
*612 FILLER_0_21_93
*613 FILLER_0_22_109
*614 FILLER_0_22_121
*615 FILLER_0_22_133
*616 FILLER_0_22_139
*617 FILLER_0_22_141
*618 FILLER_0_22_15
*619 FILLER_0_22_153
*620 FILLER_0_22_165
*621 FILLER_0_22_177
*622 FILLER_0_22_189
*623 FILLER_0_22_195
*624 FILLER_0_22_197
*625 FILLER_0_22_209
*626 FILLER_0_22_221
*627 FILLER_0_22_233
*628 FILLER_0_22_245
*629 FILLER_0_22_251
*630 FILLER_0_22_253
*631 FILLER_0_22_265
*632 FILLER_0_22_27
*633 FILLER_0_22_277
*634 FILLER_0_22_289
*635 FILLER_0_22_29
*636 FILLER_0_22_3
*637 FILLER_0_22_301
*638 FILLER_0_22_307
*639 FILLER_0_22_309
*640 FILLER_0_22_321
*641 FILLER_0_22_333
*642 FILLER_0_22_345
*643 FILLER_0_22_41
*644 FILLER_0_22_53
*645 FILLER_0_22_65
*646 FILLER_0_22_77
*647 FILLER_0_22_83
*648 FILLER_0_22_85
*649 FILLER_0_22_97
*650 FILLER_0_23_105
*651 FILLER_0_23_111
*652 FILLER_0_23_113
*653 FILLER_0_23_125
*654 FILLER_0_23_137
*655 FILLER_0_23_149
*656 FILLER_0_23_15
*657 FILLER_0_23_161
*658 FILLER_0_23_167
*659 FILLER_0_23_169
*660 FILLER_0_23_181
*661 FILLER_0_23_193
*662 FILLER_0_23_205
*663 FILLER_0_23_217
*664 FILLER_0_23_223
*665 FILLER_0_23_225
*666 FILLER_0_23_237
*667 FILLER_0_23_249
*668 FILLER_0_23_261
*669 FILLER_0_23_27
*670 FILLER_0_23_273
*671 FILLER_0_23_279
*672 FILLER_0_23_281
*673 FILLER_0_23_293
*674 FILLER_0_23_3
*675 FILLER_0_23_305
*676 FILLER_0_23_317
*677 FILLER_0_23_329
*678 FILLER_0_23_335
*679 FILLER_0_23_337
*680 FILLER_0_23_349
*681 FILLER_0_23_39
*682 FILLER_0_23_51
*683 FILLER_0_23_55
*684 FILLER_0_23_57
*685 FILLER_0_23_69
*686 FILLER_0_23_81
*687 FILLER_0_23_93
*688 FILLER_0_24_109
*689 FILLER_0_24_121
*690 FILLER_0_24_133
*691 FILLER_0_24_139
*692 FILLER_0_24_141
*693 FILLER_0_24_15
*694 FILLER_0_24_153
*695 FILLER_0_24_165
*696 FILLER_0_24_177
*697 FILLER_0_24_189
*698 FILLER_0_24_195
*699 FILLER_0_24_197
*700 FILLER_0_24_209
*701 FILLER_0_24_221
*702 FILLER_0_24_233
*703 FILLER_0_24_245
*704 FILLER_0_24_251
*705 FILLER_0_24_253
*706 FILLER_0_24_265
*707 FILLER_0_24_27
*708 FILLER_0_24_277
*709 FILLER_0_24_289
*710 FILLER_0_24_29
*711 FILLER_0_24_3
*712 FILLER_0_24_301
*713 FILLER_0_24_307
*714 FILLER_0_24_309
*715 FILLER_0_24_321
*716 FILLER_0_24_333
*717 FILLER_0_24_345
*718 FILLER_0_24_41
*719 FILLER_0_24_53
*720 FILLER_0_24_65
*721 FILLER_0_24_77
*722 FILLER_0_24_83
*723 FILLER_0_24_85
*724 FILLER_0_24_97
*725 FILLER_0_25_105
*726 FILLER_0_25_111
*727 FILLER_0_25_113
*728 FILLER_0_25_125
*729 FILLER_0_25_137
*730 FILLER_0_25_149
*731 FILLER_0_25_15
*732 FILLER_0_25_161
*733 FILLER_0_25_167
*734 FILLER_0_25_169
*735 FILLER_0_25_181
*736 FILLER_0_25_193
*737 FILLER_0_25_205
*738 FILLER_0_25_217
*739 FILLER_0_25_223
*740 FILLER_0_25_225
*741 FILLER_0_25_237
*742 FILLER_0_25_249
*743 FILLER_0_25_261
*744 FILLER_0_25_27
*745 FILLER_0_25_273
*746 FILLER_0_25_279
*747 FILLER_0_25_281
*748 FILLER_0_25_293
*749 FILLER_0_25_3
*750 FILLER_0_25_305
*751 FILLER_0_25_317
*752 FILLER_0_25_329
*753 FILLER_0_25_335
*754 FILLER_0_25_337
*755 FILLER_0_25_349
*756 FILLER_0_25_39
*757 FILLER_0_25_51
*758 FILLER_0_25_55
*759 FILLER_0_25_57
*760 FILLER_0_25_69
*761 FILLER_0_25_81
*762 FILLER_0_25_93
*763 FILLER_0_26_109
*764 FILLER_0_26_121
*765 FILLER_0_26_133
*766 FILLER_0_26_139
*767 FILLER_0_26_141
*768 FILLER_0_26_15
*769 FILLER_0_26_153
*770 FILLER_0_26_165
*771 FILLER_0_26_177
*772 FILLER_0_26_189
*773 FILLER_0_26_195
*774 FILLER_0_26_197
*775 FILLER_0_26_209
*776 FILLER_0_26_221
*777 FILLER_0_26_233
*778 FILLER_0_26_245
*779 FILLER_0_26_251
*780 FILLER_0_26_253
*781 FILLER_0_26_265
*782 FILLER_0_26_27
*783 FILLER_0_26_277
*784 FILLER_0_26_289
*785 FILLER_0_26_29
*786 FILLER_0_26_3
*787 FILLER_0_26_301
*788 FILLER_0_26_307
*789 FILLER_0_26_309
*790 FILLER_0_26_321
*791 FILLER_0_26_333
*792 FILLER_0_26_345
*793 FILLER_0_26_41
*794 FILLER_0_26_53
*795 FILLER_0_26_65
*796 FILLER_0_26_77
*797 FILLER_0_26_83
*798 FILLER_0_26_85
*799 FILLER_0_26_97
*800 FILLER_0_27_105
*801 FILLER_0_27_111
*802 FILLER_0_27_113
*803 FILLER_0_27_125
*804 FILLER_0_27_137
*805 FILLER_0_27_149
*806 FILLER_0_27_15
*807 FILLER_0_27_161
*808 FILLER_0_27_167
*809 FILLER_0_27_169
*810 FILLER_0_27_181
*811 FILLER_0_27_193
*812 FILLER_0_27_205
*813 FILLER_0_27_217
*814 FILLER_0_27_223
*815 FILLER_0_27_225
*816 FILLER_0_27_237
*817 FILLER_0_27_249
*818 FILLER_0_27_261
*819 FILLER_0_27_27
*820 FILLER_0_27_273
*821 FILLER_0_27_279
*822 FILLER_0_27_281
*823 FILLER_0_27_293
*824 FILLER_0_27_3
*825 FILLER_0_27_305
*826 FILLER_0_27_317
*827 FILLER_0_27_329
*828 FILLER_0_27_335
*829 FILLER_0_27_337
*830 FILLER_0_27_349
*831 FILLER_0_27_39
*832 FILLER_0_27_51
*833 FILLER_0_27_55
*834 FILLER_0_27_57
*835 FILLER_0_27_69
*836 FILLER_0_27_81
*837 FILLER_0_27_93
*838 FILLER_0_28_109
*839 FILLER_0_28_121
*840 FILLER_0_28_133
*841 FILLER_0_28_139
*842 FILLER_0_28_141
*843 FILLER_0_28_15
*844 FILLER_0_28_153
*845 FILLER_0_28_165
*846 FILLER_0_28_177
*847 FILLER_0_28_189
*848 FILLER_0_28_195
*849 FILLER_0_28_197
*850 FILLER_0_28_209
*851 FILLER_0_28_221
*852 FILLER_0_28_233
*853 FILLER_0_28_245
*854 FILLER_0_28_251
*855 FILLER_0_28_253
*856 FILLER_0_28_265
*857 FILLER_0_28_27
*858 FILLER_0_28_277
*859 FILLER_0_28_289
*860 FILLER_0_28_29
*861 FILLER_0_28_3
*862 FILLER_0_28_301
*863 FILLER_0_28_307
*864 FILLER_0_28_309
*865 FILLER_0_28_321
*866 FILLER_0_28_333
*867 FILLER_0_28_345
*868 FILLER_0_28_41
*869 FILLER_0_28_53
*870 FILLER_0_28_65
*871 FILLER_0_28_77
*872 FILLER_0_28_83
*873 FILLER_0_28_85
*874 FILLER_0_28_97
*875 FILLER_0_29_105
*876 FILLER_0_29_111
*877 FILLER_0_29_113
*878 FILLER_0_29_125
*879 FILLER_0_29_137
*880 FILLER_0_29_149
*881 FILLER_0_29_15
*882 FILLER_0_29_161
*883 FILLER_0_29_167
*884 FILLER_0_29_169
*885 FILLER_0_29_181
*886 FILLER_0_29_193
*887 FILLER_0_29_205
*888 FILLER_0_29_217
*889 FILLER_0_29_223
*890 FILLER_0_29_225
*891 FILLER_0_29_237
*892 FILLER_0_29_249
*893 FILLER_0_29_261
*894 FILLER_0_29_27
*895 FILLER_0_29_273
*896 FILLER_0_29_279
*897 FILLER_0_29_281
*898 FILLER_0_29_293
*899 FILLER_0_29_3
*900 FILLER_0_29_305
*901 FILLER_0_29_317
*902 FILLER_0_29_329
*903 FILLER_0_29_335
*904 FILLER_0_29_337
*905 FILLER_0_29_349
*906 FILLER_0_29_39
*907 FILLER_0_29_51
*908 FILLER_0_29_55
*909 FILLER_0_29_57
*910 FILLER_0_29_69
*911 FILLER_0_29_81
*912 FILLER_0_29_93
*913 FILLER_0_2_109
*914 FILLER_0_2_121
*915 FILLER_0_2_133
*916 FILLER_0_2_139
*917 FILLER_0_2_141
*918 FILLER_0_2_15
*919 FILLER_0_2_153
*920 FILLER_0_2_165
*921 FILLER_0_2_177
*922 FILLER_0_2_189
*923 FILLER_0_2_195
*924 FILLER_0_2_197
*925 FILLER_0_2_209
*926 FILLER_0_2_221
*927 FILLER_0_2_233
*928 FILLER_0_2_245
*929 FILLER_0_2_251
*930 FILLER_0_2_253
*931 FILLER_0_2_265
*932 FILLER_0_2_27
*933 FILLER_0_2_277
*934 FILLER_0_2_289
*935 FILLER_0_2_29
*936 FILLER_0_2_3
*937 FILLER_0_2_301
*938 FILLER_0_2_307
*939 FILLER_0_2_309
*940 FILLER_0_2_321
*941 FILLER_0_2_333
*942 FILLER_0_2_345
*943 FILLER_0_2_41
*944 FILLER_0_2_53
*945 FILLER_0_2_65
*946 FILLER_0_2_77
*947 FILLER_0_2_83
*948 FILLER_0_2_85
*949 FILLER_0_2_97
*950 FILLER_0_30_109
*951 FILLER_0_30_121
*952 FILLER_0_30_133
*953 FILLER_0_30_139
*954 FILLER_0_30_141
*955 FILLER_0_30_15
*956 FILLER_0_30_153
*957 FILLER_0_30_165
*958 FILLER_0_30_177
*959 FILLER_0_30_189
*960 FILLER_0_30_195
*961 FILLER_0_30_197
*962 FILLER_0_30_209
*963 FILLER_0_30_221
*964 FILLER_0_30_233
*965 FILLER_0_30_245
*966 FILLER_0_30_251
*967 FILLER_0_30_253
*968 FILLER_0_30_265
*969 FILLER_0_30_27
*970 FILLER_0_30_277
*971 FILLER_0_30_289
*972 FILLER_0_30_29
*973 FILLER_0_30_3
*974 FILLER_0_30_301
*975 FILLER_0_30_307
*976 FILLER_0_30_309
*977 FILLER_0_30_321
*978 FILLER_0_30_333
*979 FILLER_0_30_345
*980 FILLER_0_30_41
*981 FILLER_0_30_53
*982 FILLER_0_30_65
*983 FILLER_0_30_77
*984 FILLER_0_30_83
*985 FILLER_0_30_85
*986 FILLER_0_30_97
*987 FILLER_0_31_105
*988 FILLER_0_31_111
*989 FILLER_0_31_113
*990 FILLER_0_31_125
*991 FILLER_0_31_137
*992 FILLER_0_31_149
*993 FILLER_0_31_15
*994 FILLER_0_31_161
*995 FILLER_0_31_167
*996 FILLER_0_31_169
*997 FILLER_0_31_181
*998 FILLER_0_31_193
*999 FILLER_0_31_205
*1000 FILLER_0_31_217
*1001 FILLER_0_31_223
*1002 FILLER_0_31_225
*1003 FILLER_0_31_237
*1004 FILLER_0_31_249
*1005 FILLER_0_31_261
*1006 FILLER_0_31_27
*1007 FILLER_0_31_273
*1008 FILLER_0_31_279
*1009 FILLER_0_31_281
*1010 FILLER_0_31_293
*1011 FILLER_0_31_3
*1012 FILLER_0_31_305
*1013 FILLER_0_31_317
*1014 FILLER_0_31_329
*1015 FILLER_0_31_335
*1016 FILLER_0_31_337
*1017 FILLER_0_31_349
*1018 FILLER_0_31_39
*1019 FILLER_0_31_51
*1020 FILLER_0_31_55
*1021 FILLER_0_31_57
*1022 FILLER_0_31_69
*1023 FILLER_0_31_81
*1024 FILLER_0_31_93
*1025 FILLER_0_32_109
*1026 FILLER_0_32_121
*1027 FILLER_0_32_133
*1028 FILLER_0_32_139
*1029 FILLER_0_32_141
*1030 FILLER_0_32_15
*1031 FILLER_0_32_153
*1032 FILLER_0_32_165
*1033 FILLER_0_32_177
*1034 FILLER_0_32_189
*1035 FILLER_0_32_195
*1036 FILLER_0_32_197
*1037 FILLER_0_32_209
*1038 FILLER_0_32_221
*1039 FILLER_0_32_233
*1040 FILLER_0_32_245
*1041 FILLER_0_32_251
*1042 FILLER_0_32_253
*1043 FILLER_0_32_265
*1044 FILLER_0_32_27
*1045 FILLER_0_32_277
*1046 FILLER_0_32_289
*1047 FILLER_0_32_29
*1048 FILLER_0_32_3
*1049 FILLER_0_32_301
*1050 FILLER_0_32_307
*1051 FILLER_0_32_309
*1052 FILLER_0_32_321
*1053 FILLER_0_32_333
*1054 FILLER_0_32_345
*1055 FILLER_0_32_41
*1056 FILLER_0_32_53
*1057 FILLER_0_32_65
*1058 FILLER_0_32_77
*1059 FILLER_0_32_83
*1060 FILLER_0_32_85
*1061 FILLER_0_32_97
*1062 FILLER_0_33_105
*1063 FILLER_0_33_111
*1064 FILLER_0_33_113
*1065 FILLER_0_33_125
*1066 FILLER_0_33_137
*1067 FILLER_0_33_149
*1068 FILLER_0_33_15
*1069 FILLER_0_33_161
*1070 FILLER_0_33_167
*1071 FILLER_0_33_169
*1072 FILLER_0_33_181
*1073 FILLER_0_33_193
*1074 FILLER_0_33_205
*1075 FILLER_0_33_217
*1076 FILLER_0_33_223
*1077 FILLER_0_33_225
*1078 FILLER_0_33_237
*1079 FILLER_0_33_249
*1080 FILLER_0_33_261
*1081 FILLER_0_33_27
*1082 FILLER_0_33_273
*1083 FILLER_0_33_279
*1084 FILLER_0_33_281
*1085 FILLER_0_33_293
*1086 FILLER_0_33_3
*1087 FILLER_0_33_305
*1088 FILLER_0_33_317
*1089 FILLER_0_33_329
*1090 FILLER_0_33_335
*1091 FILLER_0_33_337
*1092 FILLER_0_33_349
*1093 FILLER_0_33_39
*1094 FILLER_0_33_51
*1095 FILLER_0_33_55
*1096 FILLER_0_33_57
*1097 FILLER_0_33_69
*1098 FILLER_0_33_81
*1099 FILLER_0_33_93
*1100 FILLER_0_34_109
*1101 FILLER_0_34_121
*1102 FILLER_0_34_133
*1103 FILLER_0_34_139
*1104 FILLER_0_34_141
*1105 FILLER_0_34_15
*1106 FILLER_0_34_153
*1107 FILLER_0_34_165
*1108 FILLER_0_34_177
*1109 FILLER_0_34_189
*1110 FILLER_0_34_195
*1111 FILLER_0_34_197
*1112 FILLER_0_34_209
*1113 FILLER_0_34_221
*1114 FILLER_0_34_233
*1115 FILLER_0_34_245
*1116 FILLER_0_34_251
*1117 FILLER_0_34_253
*1118 FILLER_0_34_265
*1119 FILLER_0_34_27
*1120 FILLER_0_34_277
*1121 FILLER_0_34_289
*1122 FILLER_0_34_29
*1123 FILLER_0_34_3
*1124 FILLER_0_34_301
*1125 FILLER_0_34_307
*1126 FILLER_0_34_309
*1127 FILLER_0_34_321
*1128 FILLER_0_34_333
*1129 FILLER_0_34_345
*1130 FILLER_0_34_41
*1131 FILLER_0_34_53
*1132 FILLER_0_34_65
*1133 FILLER_0_34_77
*1134 FILLER_0_34_83
*1135 FILLER_0_34_85
*1136 FILLER_0_34_97
*1137 FILLER_0_35_105
*1138 FILLER_0_35_111
*1139 FILLER_0_35_113
*1140 FILLER_0_35_125
*1141 FILLER_0_35_137
*1142 FILLER_0_35_149
*1143 FILLER_0_35_15
*1144 FILLER_0_35_161
*1145 FILLER_0_35_167
*1146 FILLER_0_35_169
*1147 FILLER_0_35_181
*1148 FILLER_0_35_193
*1149 FILLER_0_35_205
*1150 FILLER_0_35_217
*1151 FILLER_0_35_223
*1152 FILLER_0_35_225
*1153 FILLER_0_35_237
*1154 FILLER_0_35_249
*1155 FILLER_0_35_261
*1156 FILLER_0_35_27
*1157 FILLER_0_35_273
*1158 FILLER_0_35_279
*1159 FILLER_0_35_281
*1160 FILLER_0_35_293
*1161 FILLER_0_35_3
*1162 FILLER_0_35_305
*1163 FILLER_0_35_317
*1164 FILLER_0_35_329
*1165 FILLER_0_35_335
*1166 FILLER_0_35_337
*1167 FILLER_0_35_349
*1168 FILLER_0_35_39
*1169 FILLER_0_35_51
*1170 FILLER_0_35_55
*1171 FILLER_0_35_57
*1172 FILLER_0_35_69
*1173 FILLER_0_35_81
*1174 FILLER_0_35_93
*1175 FILLER_0_36_109
*1176 FILLER_0_36_121
*1177 FILLER_0_36_133
*1178 FILLER_0_36_139
*1179 FILLER_0_36_141
*1180 FILLER_0_36_15
*1181 FILLER_0_36_153
*1182 FILLER_0_36_165
*1183 FILLER_0_36_177
*1184 FILLER_0_36_189
*1185 FILLER_0_36_195
*1186 FILLER_0_36_197
*1187 FILLER_0_36_209
*1188 FILLER_0_36_221
*1189 FILLER_0_36_233
*1190 FILLER_0_36_245
*1191 FILLER_0_36_251
*1192 FILLER_0_36_253
*1193 FILLER_0_36_265
*1194 FILLER_0_36_27
*1195 FILLER_0_36_277
*1196 FILLER_0_36_289
*1197 FILLER_0_36_29
*1198 FILLER_0_36_3
*1199 FILLER_0_36_301
*1200 FILLER_0_36_307
*1201 FILLER_0_36_309
*1202 FILLER_0_36_321
*1203 FILLER_0_36_333
*1204 FILLER_0_36_345
*1205 FILLER_0_36_41
*1206 FILLER_0_36_53
*1207 FILLER_0_36_65
*1208 FILLER_0_36_77
*1209 FILLER_0_36_83
*1210 FILLER_0_36_85
*1211 FILLER_0_36_97
*1212 FILLER_0_37_105
*1213 FILLER_0_37_111
*1214 FILLER_0_37_113
*1215 FILLER_0_37_125
*1216 FILLER_0_37_137
*1217 FILLER_0_37_149
*1218 FILLER_0_37_15
*1219 FILLER_0_37_161
*1220 FILLER_0_37_167
*1221 FILLER_0_37_169
*1222 FILLER_0_37_181
*1223 FILLER_0_37_193
*1224 FILLER_0_37_205
*1225 FILLER_0_37_217
*1226 FILLER_0_37_223
*1227 FILLER_0_37_225
*1228 FILLER_0_37_237
*1229 FILLER_0_37_249
*1230 FILLER_0_37_261
*1231 FILLER_0_37_27
*1232 FILLER_0_37_273
*1233 FILLER_0_37_279
*1234 FILLER_0_37_281
*1235 FILLER_0_37_293
*1236 FILLER_0_37_3
*1237 FILLER_0_37_305
*1238 FILLER_0_37_317
*1239 FILLER_0_37_329
*1240 FILLER_0_37_335
*1241 FILLER_0_37_337
*1242 FILLER_0_37_349
*1243 FILLER_0_37_39
*1244 FILLER_0_37_51
*1245 FILLER_0_37_55
*1246 FILLER_0_37_57
*1247 FILLER_0_37_69
*1248 FILLER_0_37_81
*1249 FILLER_0_37_93
*1250 FILLER_0_38_109
*1251 FILLER_0_38_121
*1252 FILLER_0_38_133
*1253 FILLER_0_38_139
*1254 FILLER_0_38_141
*1255 FILLER_0_38_15
*1256 FILLER_0_38_153
*1257 FILLER_0_38_165
*1258 FILLER_0_38_177
*1259 FILLER_0_38_189
*1260 FILLER_0_38_195
*1261 FILLER_0_38_197
*1262 FILLER_0_38_209
*1263 FILLER_0_38_221
*1264 FILLER_0_38_233
*1265 FILLER_0_38_245
*1266 FILLER_0_38_251
*1267 FILLER_0_38_253
*1268 FILLER_0_38_265
*1269 FILLER_0_38_27
*1270 FILLER_0_38_277
*1271 FILLER_0_38_289
*1272 FILLER_0_38_29
*1273 FILLER_0_38_3
*1274 FILLER_0_38_301
*1275 FILLER_0_38_307
*1276 FILLER_0_38_309
*1277 FILLER_0_38_321
*1278 FILLER_0_38_333
*1279 FILLER_0_38_345
*1280 FILLER_0_38_41
*1281 FILLER_0_38_53
*1282 FILLER_0_38_65
*1283 FILLER_0_38_77
*1284 FILLER_0_38_83
*1285 FILLER_0_38_85
*1286 FILLER_0_38_97
*1287 FILLER_0_39_105
*1288 FILLER_0_39_111
*1289 FILLER_0_39_113
*1290 FILLER_0_39_125
*1291 FILLER_0_39_137
*1292 FILLER_0_39_149
*1293 FILLER_0_39_15
*1294 FILLER_0_39_161
*1295 FILLER_0_39_167
*1296 FILLER_0_39_169
*1297 FILLER_0_39_181
*1298 FILLER_0_39_193
*1299 FILLER_0_39_205
*1300 FILLER_0_39_217
*1301 FILLER_0_39_223
*1302 FILLER_0_39_225
*1303 FILLER_0_39_237
*1304 FILLER_0_39_249
*1305 FILLER_0_39_261
*1306 FILLER_0_39_27
*1307 FILLER_0_39_273
*1308 FILLER_0_39_279
*1309 FILLER_0_39_281
*1310 FILLER_0_39_293
*1311 FILLER_0_39_3
*1312 FILLER_0_39_305
*1313 FILLER_0_39_317
*1314 FILLER_0_39_329
*1315 FILLER_0_39_335
*1316 FILLER_0_39_337
*1317 FILLER_0_39_349
*1318 FILLER_0_39_39
*1319 FILLER_0_39_51
*1320 FILLER_0_39_55
*1321 FILLER_0_39_57
*1322 FILLER_0_39_69
*1323 FILLER_0_39_81
*1324 FILLER_0_39_93
*1325 FILLER_0_3_105
*1326 FILLER_0_3_111
*1327 FILLER_0_3_113
*1328 FILLER_0_3_125
*1329 FILLER_0_3_137
*1330 FILLER_0_3_149
*1331 FILLER_0_3_15
*1332 FILLER_0_3_161
*1333 FILLER_0_3_167
*1334 FILLER_0_3_169
*1335 FILLER_0_3_181
*1336 FILLER_0_3_193
*1337 FILLER_0_3_205
*1338 FILLER_0_3_217
*1339 FILLER_0_3_223
*1340 FILLER_0_3_225
*1341 FILLER_0_3_237
*1342 FILLER_0_3_249
*1343 FILLER_0_3_261
*1344 FILLER_0_3_27
*1345 FILLER_0_3_273
*1346 FILLER_0_3_279
*1347 FILLER_0_3_281
*1348 FILLER_0_3_293
*1349 FILLER_0_3_3
*1350 FILLER_0_3_305
*1351 FILLER_0_3_317
*1352 FILLER_0_3_329
*1353 FILLER_0_3_335
*1354 FILLER_0_3_337
*1355 FILLER_0_3_349
*1356 FILLER_0_3_39
*1357 FILLER_0_3_51
*1358 FILLER_0_3_55
*1359 FILLER_0_3_57
*1360 FILLER_0_3_69
*1361 FILLER_0_3_81
*1362 FILLER_0_3_93
*1363 FILLER_0_40_109
*1364 FILLER_0_40_121
*1365 FILLER_0_40_133
*1366 FILLER_0_40_139
*1367 FILLER_0_40_141
*1368 FILLER_0_40_15
*1369 FILLER_0_40_153
*1370 FILLER_0_40_165
*1371 FILLER_0_40_177
*1372 FILLER_0_40_189
*1373 FILLER_0_40_195
*1374 FILLER_0_40_197
*1375 FILLER_0_40_209
*1376 FILLER_0_40_221
*1377 FILLER_0_40_233
*1378 FILLER_0_40_245
*1379 FILLER_0_40_251
*1380 FILLER_0_40_253
*1381 FILLER_0_40_265
*1382 FILLER_0_40_27
*1383 FILLER_0_40_277
*1384 FILLER_0_40_289
*1385 FILLER_0_40_29
*1386 FILLER_0_40_3
*1387 FILLER_0_40_301
*1388 FILLER_0_40_307
*1389 FILLER_0_40_309
*1390 FILLER_0_40_321
*1391 FILLER_0_40_333
*1392 FILLER_0_40_345
*1393 FILLER_0_40_41
*1394 FILLER_0_40_53
*1395 FILLER_0_40_65
*1396 FILLER_0_40_77
*1397 FILLER_0_40_83
*1398 FILLER_0_40_85
*1399 FILLER_0_40_97
*1400 FILLER_0_41_105
*1401 FILLER_0_41_111
*1402 FILLER_0_41_113
*1403 FILLER_0_41_125
*1404 FILLER_0_41_137
*1405 FILLER_0_41_149
*1406 FILLER_0_41_15
*1407 FILLER_0_41_161
*1408 FILLER_0_41_167
*1409 FILLER_0_41_169
*1410 FILLER_0_41_181
*1411 FILLER_0_41_193
*1412 FILLER_0_41_205
*1413 FILLER_0_41_217
*1414 FILLER_0_41_223
*1415 FILLER_0_41_225
*1416 FILLER_0_41_237
*1417 FILLER_0_41_249
*1418 FILLER_0_41_261
*1419 FILLER_0_41_27
*1420 FILLER_0_41_273
*1421 FILLER_0_41_279
*1422 FILLER_0_41_281
*1423 FILLER_0_41_293
*1424 FILLER_0_41_3
*1425 FILLER_0_41_305
*1426 FILLER_0_41_317
*1427 FILLER_0_41_329
*1428 FILLER_0_41_335
*1429 FILLER_0_41_337
*1430 FILLER_0_41_349
*1431 FILLER_0_41_39
*1432 FILLER_0_41_51
*1433 FILLER_0_41_55
*1434 FILLER_0_41_57
*1435 FILLER_0_41_69
*1436 FILLER_0_41_81
*1437 FILLER_0_41_93
*1438 FILLER_0_42_109
*1439 FILLER_0_42_121
*1440 FILLER_0_42_133
*1441 FILLER_0_42_139
*1442 FILLER_0_42_141
*1443 FILLER_0_42_15
*1444 FILLER_0_42_153
*1445 FILLER_0_42_165
*1446 FILLER_0_42_177
*1447 FILLER_0_42_189
*1448 FILLER_0_42_195
*1449 FILLER_0_42_197
*1450 FILLER_0_42_209
*1451 FILLER_0_42_221
*1452 FILLER_0_42_233
*1453 FILLER_0_42_245
*1454 FILLER_0_42_251
*1455 FILLER_0_42_253
*1456 FILLER_0_42_265
*1457 FILLER_0_42_27
*1458 FILLER_0_42_277
*1459 FILLER_0_42_289