*SPEF "ieee 1481-1999"
*DESIGN "tt_um_pong_neopixel"
*DATE "11:11:11 Fri 11 11, 1111"
*VENDOR "OpenRCX"
*PROGRAM "Parallel Extraction"
*VERSION "1.0"
*DESIGN_FLOW "NAME_SCOPE LOCAL" "PIN_CAP NONE"
*DIVIDER /
*DELIMITER :
*BUS_DELIMITER []
*T_UNIT 1 NS
*C_UNIT 1 PF
*R_UNIT 1 OHM
*L_UNIT 1 HENRY

*NAME_MAP
*3 clk
*4 ena
*5 rst_n
*6 ui_in[0]
*7 ui_in[1]
*8 ui_in[2]
*9 ui_in[3]
*10 ui_in[4]
*11 ui_in[5]
*12 ui_in[6]
*13 ui_in[7]
*14 uio_in[0]
*15 uio_in[1]
*16 uio_in[2]
*17 uio_in[3]
*18 uio_in[4]
*19 uio_in[5]
*20 uio_in[6]
*21 uio_in[7]
*22 net9
*23 net10
*24 net11
*25 net12
*26 net13
*27 net14
*28 net15
*29 net16
*30 net17
*31 net18
*32 net19
*33 net20
*34 net21
*35 net22
*36 net23
*37 net24
*38 uo_out[0]
*39 net25
*40 net26
*41 net27
*42 net28
*43 net29
*44 net30
*45 net31
*46 U2\.counter\[0\]
*47 U2\.counter\[1\]
*48 U2\.counter\[2\]
*49 U2\.counter\[3\]
*50 U2\.wave_one
*51 U2\.wave_zero
*52 U3\.count\[0\]
*53 U3\.count\[10\]
*54 U3\.count\[11\]
*55 U3\.count\[12\]
*56 U3\.count\[13\]
*57 U3\.count\[14\]
*58 U3\.count\[15\]
*59 U3\.count\[16\]
*60 U3\.count\[17\]
*61 U3\.count\[18\]
*62 U3\.count\[19\]
*63 U3\.count\[1\]
*64 U3\.count\[20\]
*65 U3\.count\[21\]
*66 U3\.count\[2\]
*67 U3\.count\[3\]
*68 U3\.count\[4\]
*69 U3\.count\[5\]
*70 U3\.count\[6\]
*71 U3\.count\[7\]
*72 U3\.count\[8\]
*73 U3\.count\[9\]
*74 U4\.Q0
*75 U4\.Q1
*76 U4\.Q2
*77 U4\.pb_out
*78 U5\.Q0
*79 U5\.Q1
*80 U5\.Q2
*81 U5\.pb_out
*82 U6\.Q0
*83 U6\.Q1
*84 U6\.Q2
*85 U6\.pb_out
*86 U7\.Q0
*87 U7\.Q1
*88 U7\.Q2
*89 U7\.pb_out
*90 U8\.Q0
*91 U8\.Q1
*92 U8\.Q2
*93 U8\.pb_out
*94 _000_
*95 _001_
*96 _002_
*97 _003_
*98 _004_
*99 _005_
*100 _006_
*101 _007_
*102 _008_
*103 _009_
*104 _010_
*105 _011_
*106 _012_
*107 _013_
*108 _014_
*109 _015_
*110 _016_
*111 _017_
*112 _018_
*113 _019_
*114 _020_
*115 _021_
*116 _022_
*117 _023_
*118 _024_
*119 _025_
*120 _026_
*121 _027_
*122 _028_
*123 _029_
*124 _030_
*125 _031_
*126 _032_
*127 _033_
*128 _034_
*129 _035_
*130 _036_
*131 _037_
*132 _038_
*133 _039_
*134 _040_
*135 _041_
*136 _042_
*137 _043_
*138 _044_
*139 _045_
*140 _046_
*141 _047_
*142 _048_
*143 _049_
*144 _050_
*145 _051_
*146 _052_
*147 _053_
*148 _054_
*149 _055_
*150 _056_
*151 _057_
*152 _058_
*153 _059_
*154 _060_
*155 _061_
*156 _062_
*157 _063_
*158 _064_
*159 _065_
*160 _066_
*161 _067_
*162 _068_
*163 _069_
*164 _070_
*165 _071_
*166 _072_
*167 _073_
*168 _074_
*169 _075_
*170 _076_
*171 _077_
*172 _078_
*173 _079_
*174 _080_
*175 _081_
*176 _082_
*177 _083_
*178 _084_
*179 _085_
*180 _086_
*181 _087_
*182 _088_
*183 _089_
*184 _090_
*185 _091_
*186 _092_
*187 _093_
*188 _094_
*189 _095_
*190 _096_
*191 _097_
*192 _098_
*193 _099_
*194 _100_
*195 _101_
*196 _102_
*197 _103_
*198 _104_
*199 _105_
*200 _106_
*201 _107_
*202 _108_
*203 _109_
*204 _110_
*205 _111_
*206 _112_
*207 _113_
*208 _114_
*209 _115_
*210 _116_
*211 _117_
*212 _118_
*213 _119_
*214 _120_
*215 _121_
*216 _122_
*217 _123_
*218 _124_
*219 _125_
*220 _126_
*221 _127_
*222 _128_
*223 _129_
*224 _130_
*225 _131_
*226 _132_
*227 _133_
*228 _134_
*229 _135_
*230 _136_
*231 _137_
*232 _138_
*233 _139_
*234 _140_
*235 _141_
*236 _142_
*237 _143_
*238 _144_
*239 _145_
*240 _146_
*241 _147_
*242 _148_
*243 _149_
*244 _150_
*245 _151_
*246 _152_
*247 _153_
*248 _154_
*249 _155_
*250 _156_
*251 _157_
*252 _158_
*253 _159_
*254 _160_
*255 _161_
*256 _162_
*257 _163_
*258 _164_
*259 _165_
*260 _166_
*261 _167_
*262 _168_
*263 _169_
*264 _170_
*265 _171_
*266 _172_
*267 _173_
*268 _174_
*269 _175_
*270 _176_
*271 _177_
*272 _178_
*273 _179_
*274 _180_
*275 _181_
*276 _182_
*277 _183_
*278 _184_
*279 _185_
*280 _186_
*281 _187_
*282 _188_
*283 _189_
*284 _190_
*285 _191_
*286 _192_
*287 _193_
*288 _194_
*289 _195_
*290 _196_
*291 _197_
*292 _198_
*293 _199_
*294 _200_
*295 _201_
*296 _202_
*297 _203_
*298 _204_
*299 _205_
*300 _206_
*301 _207_
*302 _208_
*303 _209_
*304 _210_
*305 _211_
*306 _212_
*307 _213_
*308 _214_
*309 _215_
*310 _216_
*311 _217_
*312 _218_
*313 _219_
*314 _220_
*315 _221_
*316 _222_
*317 _223_
*318 _224_
*319 _225_
*320 _226_
*321 _227_
*322 _228_
*323 _229_
*324 _230_
*325 _231_
*326 _232_
*327 _233_
*328 _234_
*329 _235_
*330 _236_
*331 _237_
*332 _238_
*333 _239_
*334 _240_
*335 _241_
*336 _242_
*337 _243_
*338 _244_
*339 _245_
*340 _246_
*341 _247_
*342 _248_
*343 _249_
*344 _250_
*345 _251_
*346 _252_
*347 _253_
*348 _254_
*349 _255_
*350 _256_
*351 _257_
*352 _258_
*353 _259_
*354 _260_
*355 _261_
*356 _262_
*357 _263_
*358 _264_
*359 _265_
*360 _266_
*361 _267_
*362 _268_
*363 _269_
*364 _270_
*365 _271_
*366 _272_
*367 _273_
*368 _274_
*369 _275_
*370 _276_
*371 _277_
*372 _278_
*373 _279_
*374 _280_
*375 _281_
*376 _282_
*377 _283_
*378 _284_
*379 _285_
*380 _286_
*381 _287_
*382 _288_
*383 _289_
*384 _290_
*385 _291_
*386 _292_
*387 _293_
*388 _294_
*389 _295_
*390 _296_
*391 _297_
*392 _298_
*393 _299_
*394 _300_
*395 _301_
*396 _302_
*397 _303_
*398 _304_
*399 _305_
*400 _306_
*401 _307_
*402 _308_
*403 _309_
*404 _310_
*405 _311_
*406 _312_
*407 _313_
*408 _314_
*409 _315_
*410 _316_
*411 _317_
*412 _318_
*413 _319_
*414 _320_
*415 _321_
*416 _322_
*417 _323_
*418 _324_
*419 _325_
*420 _326_
*421 _327_
*422 _328_
*423 _329_
*424 _330_
*425 _331_
*426 _332_
*427 _333_
*428 _334_
*429 _335_
*430 _336_
*431 _337_
*432 _338_
*433 _339_
*434 _340_
*435 _341_
*436 _342_
*437 _343_
*438 _344_
*439 _345_
*440 _346_
*441 clk_5_new
*442 clknet_0_clk
*443 clknet_3_0__leaf_clk
*444 clknet_3_1__leaf_clk
*445 clknet_3_2__leaf_clk
*446 clknet_3_3__leaf_clk
*447 clknet_3_4__leaf_clk
*448 clknet_3_5__leaf_clk
*449 clknet_3_6__leaf_clk
*450 clknet_3_7__leaf_clk
*451 counter_bits\[0\]
*452 counter_bits\[1\]
*453 counter_bits\[2\]
*454 counter_bits\[3\]
*455 counter_bits\[4\]
*456 counter_leds\[0\]
*457 counter_leds\[1\]
*458 counter_leds\[2\]
*459 counter_leds\[3\]
*460 counter_leds\[4\]
*461 counter_leds\[5\]
*462 counter_leds\[6\]
*463 driver
*464 driver_out
*465 net1
*466 net2
*467 net3
*468 net32
*469 net33
*470 net34
*471 net35
*472 net36
*473 net37
*474 net38
*475 net39
*476 net4
*477 net40
*478 net41
*479 net42
*480 net43
*481 net44
*482 net45
*483 net46
*484 net47
*485 net48
*486 net49
*487 net5
*488 net50
*489 net51
*490 net52
*491 net53
*492 net54
*493 net55
*494 net56
*495 net57
*496 net58
*497 net59
*498 net6
*499 net60
*500 net61
*501 net62
*502 net63
*503 net64
*504 net65
*505 net66
*506 net67
*507 net68
*508 net69
*509 net7
*510 net70
*511 net8
*512 now_p1_down
*513 now_p1_up
*514 now_p2_down
*515 now_p2_up
*516 now_start
*517 pel_now
*518 pos_der\[0\]
*519 pos_der\[1\]
*520 pos_der\[2\]
*521 pos_izq\[0\]
*522 pos_izq\[1\]
*523 pos_izq\[2\]
*524 pos_pel\[0\]
*525 pos_pel\[1\]
*526 pos_pel\[2\]
*527 pos_pel\[3\]
*528 pos_pel\[4\]
*529 pos_pel\[5\]
*530 res_signal
*531 signal_sel
*532 vel_x\[1\]
*533 vel_x\[2\]
*534 vel_y\[1\]
*535 vel_y\[2\]
*536 FILLER_0_0_109
*537 FILLER_0_0_113
*538 FILLER_0_0_125
*539 FILLER_0_0_137
*540 FILLER_0_0_141
*541 FILLER_0_0_15
*542 FILLER_0_0_153
*543 FILLER_0_0_165
*544 FILLER_0_0_169
*545 FILLER_0_0_181
*546 FILLER_0_0_193
*547 FILLER_0_0_197
*548 FILLER_0_0_209
*549 FILLER_0_0_221
*550 FILLER_0_0_225
*551 FILLER_0_0_237
*552 FILLER_0_0_249
*553 FILLER_0_0_253
*554 FILLER_0_0_265
*555 FILLER_0_0_27
*556 FILLER_0_0_277
*557 FILLER_0_0_281
*558 FILLER_0_0_29
*559 FILLER_0_0_293
*560 FILLER_0_0_3
*561 FILLER_0_0_305
*562 FILLER_0_0_309
*563 FILLER_0_0_321
*564 FILLER_0_0_333
*565 FILLER_0_0_337
*566 FILLER_0_0_349
*567 FILLER_0_0_41
*568 FILLER_0_0_53
*569 FILLER_0_0_57
*570 FILLER_0_0_69
*571 FILLER_0_0_81
*572 FILLER_0_0_85
*573 FILLER_0_0_97
*574 FILLER_0_10_109
*575 FILLER_0_10_121
*576 FILLER_0_10_133
*577 FILLER_0_10_139
*578 FILLER_0_10_141
*579 FILLER_0_10_15
*580 FILLER_0_10_153
*581 FILLER_0_10_165
*582 FILLER_0_10_177
*583 FILLER_0_10_189
*584 FILLER_0_10_195
*585 FILLER_0_10_197
*586 FILLER_0_10_209
*587 FILLER_0_10_221
*588 FILLER_0_10_233
*589 FILLER_0_10_245
*590 FILLER_0_10_251
*591 FILLER_0_10_253
*592 FILLER_0_10_265
*593 FILLER_0_10_27
*594 FILLER_0_10_277
*595 FILLER_0_10_289
*596 FILLER_0_10_29
*597 FILLER_0_10_3
*598 FILLER_0_10_301
*599 FILLER_0_10_307
*600 FILLER_0_10_309
*601 FILLER_0_10_321
*602 FILLER_0_10_333
*603 FILLER_0_10_345
*604 FILLER_0_10_41
*605 FILLER_0_10_53
*606 FILLER_0_10_65
*607 FILLER_0_10_77
*608 FILLER_0_10_83
*609 FILLER_0_10_85
*610 FILLER_0_10_97
*611 FILLER_0_11_105
*612 FILLER_0_11_111
*613 FILLER_0_11_113
*614 FILLER_0_11_125
*615 FILLER_0_11_137
*616 FILLER_0_11_149
*617 FILLER_0_11_15
*618 FILLER_0_11_161
*619 FILLER_0_11_167
*620 FILLER_0_11_169
*621 FILLER_0_11_181
*622 FILLER_0_11_193
*623 FILLER_0_11_205
*624 FILLER_0_11_217
*625 FILLER_0_11_223
*626 FILLER_0_11_225
*627 FILLER_0_11_237
*628 FILLER_0_11_249
*629 FILLER_0_11_261
*630 FILLER_0_11_27
*631 FILLER_0_11_273
*632 FILLER_0_11_279
*633 FILLER_0_11_281
*634 FILLER_0_11_293
*635 FILLER_0_11_3
*636 FILLER_0_11_305
*637 FILLER_0_11_317
*638 FILLER_0_11_329
*639 FILLER_0_11_335
*640 FILLER_0_11_337
*641 FILLER_0_11_349
*642 FILLER_0_11_39
*643 FILLER_0_11_51
*644 FILLER_0_11_55
*645 FILLER_0_11_57
*646 FILLER_0_11_69
*647 FILLER_0_11_81
*648 FILLER_0_11_93
*649 FILLER_0_12_109
*650 FILLER_0_12_121
*651 FILLER_0_12_133
*652 FILLER_0_12_139
*653 FILLER_0_12_141
*654 FILLER_0_12_15
*655 FILLER_0_12_153
*656 FILLER_0_12_165
*657 FILLER_0_12_177
*658 FILLER_0_12_189
*659 FILLER_0_12_195
*660 FILLER_0_12_197
*661 FILLER_0_12_209
*662 FILLER_0_12_221
*663 FILLER_0_12_233
*664 FILLER_0_12_245
*665 FILLER_0_12_251
*666 FILLER_0_12_253
*667 FILLER_0_12_265
*668 FILLER_0_12_27
*669 FILLER_0_12_273
*670 FILLER_0_12_280
*671 FILLER_0_12_29
*672 FILLER_0_12_292
*673 FILLER_0_12_3
*674 FILLER_0_12_304
*675 FILLER_0_12_309
*676 FILLER_0_12_321
*677 FILLER_0_12_336
*678 FILLER_0_12_344
*679 FILLER_0_12_348
*680 FILLER_0_12_41
*681 FILLER_0_12_53
*682 FILLER_0_12_65
*683 FILLER_0_12_77
*684 FILLER_0_12_83
*685 FILLER_0_12_85
*686 FILLER_0_12_97
*687 FILLER_0_13_105
*688 FILLER_0_13_111
*689 FILLER_0_13_113
*690 FILLER_0_13_125
*691 FILLER_0_13_137
*692 FILLER_0_13_149
*693 FILLER_0_13_15
*694 FILLER_0_13_161
*695 FILLER_0_13_167
*696 FILLER_0_13_169
*697 FILLER_0_13_181
*698 FILLER_0_13_193
*699 FILLER_0_13_205
*700 FILLER_0_13_217
*701 FILLER_0_13_223
*702 FILLER_0_13_225
*703 FILLER_0_13_237
*704 FILLER_0_13_262
*705 FILLER_0_13_27
*706 FILLER_0_13_271
*707 FILLER_0_13_297
*708 FILLER_0_13_3
*709 FILLER_0_13_309
*710 FILLER_0_13_317
*711 FILLER_0_13_337
*712 FILLER_0_13_39
*713 FILLER_0_13_51
*714 FILLER_0_13_55
*715 FILLER_0_13_57
*716 FILLER_0_13_69
*717 FILLER_0_13_81
*718 FILLER_0_13_93
*719 FILLER_0_14_109
*720 FILLER_0_14_121
*721 FILLER_0_14_133
*722 FILLER_0_14_139
*723 FILLER_0_14_141
*724 FILLER_0_14_15
*725 FILLER_0_14_153
*726 FILLER_0_14_165
*727 FILLER_0_14_177
*728 FILLER_0_14_189
*729 FILLER_0_14_195
*730 FILLER_0_14_197
*731 FILLER_0_14_209
*732 FILLER_0_14_221
*733 FILLER_0_14_233
*734 FILLER_0_14_27
*735 FILLER_0_14_29
*736 FILLER_0_14_3
*737 FILLER_0_14_307
*738 FILLER_0_14_341
*739 FILLER_0_14_350
*740 FILLER_0_14_41
*741 FILLER_0_14_53
*742 FILLER_0_14_65
*743 FILLER_0_14_77
*744 FILLER_0_14_83
*745 FILLER_0_14_85
*746 FILLER_0_14_97
*747 FILLER_0_15_105
*748 FILLER_0_15_111
*749 FILLER_0_15_113
*750 FILLER_0_15_125
*751 FILLER_0_15_137
*752 FILLER_0_15_149
*753 FILLER_0_15_15
*754 FILLER_0_15_161
*755 FILLER_0_15_167
*756 FILLER_0_15_169
*757 FILLER_0_15_181
*758 FILLER_0_15_193
*759 FILLER_0_15_205
*760 FILLER_0_15_217
*761 FILLER_0_15_223
*762 FILLER_0_15_225
*763 FILLER_0_15_237
*764 FILLER_0_15_244
*765 FILLER_0_15_248
*766 FILLER_0_15_252
*767 FILLER_0_15_27
*768 FILLER_0_15_3
*769 FILLER_0_15_309
*770 FILLER_0_15_317
*771 FILLER_0_15_334
*772 FILLER_0_15_350
*773 FILLER_0_15_39
*774 FILLER_0_15_51
*775 FILLER_0_15_55
*776 FILLER_0_15_57
*777 FILLER_0_15_69
*778 FILLER_0_15_81
*779 FILLER_0_15_93
*780 FILLER_0_16_109
*781 FILLER_0_16_121
*782 FILLER_0_16_133
*783 FILLER_0_16_139
*784 FILLER_0_16_141
*785 FILLER_0_16_15
*786 FILLER_0_16_153
*787 FILLER_0_16_165
*788 FILLER_0_16_177
*789 FILLER_0_16_189
*790 FILLER_0_16_195
*791 FILLER_0_16_203
*792 FILLER_0_16_215
*793 FILLER_0_16_227
*794 FILLER_0_16_239
*795 FILLER_0_16_250
*796 FILLER_0_16_262
*797 FILLER_0_16_27
*798 FILLER_0_16_274
*799 FILLER_0_16_286
*800 FILLER_0_16_29
*801 FILLER_0_16_290
*802 FILLER_0_16_3
*803 FILLER_0_16_303
*804 FILLER_0_16_307
*805 FILLER_0_16_309
*806 FILLER_0_16_317
*807 FILLER_0_16_41
*808 FILLER_0_16_53
*809 FILLER_0_16_65
*810 FILLER_0_16_77
*811 FILLER_0_16_83
*812 FILLER_0_16_85
*813 FILLER_0_16_97
*814 FILLER_0_17_105
*815 FILLER_0_17_111
*816 FILLER_0_17_113
*817 FILLER_0_17_125
*818 FILLER_0_17_137
*819 FILLER_0_17_149
*820 FILLER_0_17_15
*821 FILLER_0_17_155
*822 FILLER_0_17_159
*823 FILLER_0_17_167
*824 FILLER_0_17_169
*825 FILLER_0_17_181
*826 FILLER_0_17_213
*827 FILLER_0_17_221
*828 FILLER_0_17_225
*829 FILLER_0_17_233
*830 FILLER_0_17_245
*831 FILLER_0_17_268
*832 FILLER_0_17_27
*833 FILLER_0_17_276
*834 FILLER_0_17_296
*835 FILLER_0_17_3
*836 FILLER_0_17_308
*837 FILLER_0_17_320
*838 FILLER_0_17_349
*839 FILLER_0_17_39
*840 FILLER_0_17_51
*841 FILLER_0_17_55
*842 FILLER_0_17_57
*843 FILLER_0_17_69
*844 FILLER_0_17_81
*845 FILLER_0_17_93
*846 FILLER_0_18_109
*847 FILLER_0_18_121
*848 FILLER_0_18_133
*849 FILLER_0_18_139
*850 FILLER_0_18_15
*851 FILLER_0_18_177
*852 FILLER_0_18_191
*853 FILLER_0_18_200
*854 FILLER_0_18_207
*855 FILLER_0_18_220
*856 FILLER_0_18_235
*857 FILLER_0_18_246
*858 FILLER_0_18_27
*859 FILLER_0_18_29
*860 FILLER_0_18_3
*861 FILLER_0_18_305
*862 FILLER_0_18_309
*863 FILLER_0_18_321
*864 FILLER_0_18_41
*865 FILLER_0_18_53
*866 FILLER_0_18_65
*867 FILLER_0_18_77
*868 FILLER_0_18_83
*869 FILLER_0_18_85
*870 FILLER_0_18_97
*871 FILLER_0_19_108
*872 FILLER_0_19_113
*873 FILLER_0_19_125
*874 FILLER_0_19_137
*875 FILLER_0_19_149
*876 FILLER_0_19_15
*877 FILLER_0_19_172
*878 FILLER_0_19_184
*879 FILLER_0_19_213
*880 FILLER_0_19_222
*881 FILLER_0_19_253
*882 FILLER_0_19_265
*883 FILLER_0_19_27
*884 FILLER_0_19_275
*885 FILLER_0_19_279
*886 FILLER_0_19_281
*887 FILLER_0_19_3
*888 FILLER_0_19_303
*889 FILLER_0_19_315
*890 FILLER_0_19_319
*891 FILLER_0_19_348
*892 FILLER_0_19_39
*893 FILLER_0_19_51
*894 FILLER_0_19_55
*895 FILLER_0_19_57
*896 FILLER_0_19_65
*897 FILLER_0_19_72
*898 FILLER_0_19_84
*899 FILLER_0_19_96
*900 FILLER_0_1_105
*901 FILLER_0_1_111
*902 FILLER_0_1_113
*903 FILLER_0_1_125
*904 FILLER_0_1_137
*905 FILLER_0_1_149
*906 FILLER_0_1_15
*907 FILLER_0_1_161
*908 FILLER_0_1_167
*909 FILLER_0_1_169
*910 FILLER_0_1_181
*911 FILLER_0_1_193
*912 FILLER_0_1_205
*913 FILLER_0_1_217
*914 FILLER_0_1_223
*915 FILLER_0_1_225
*916 FILLER_0_1_237
*917 FILLER_0_1_249
*918 FILLER_0_1_261
*919 FILLER_0_1_27
*920 FILLER_0_1_273
*921 FILLER_0_1_279
*922 FILLER_0_1_281
*923 FILLER_0_1_293
*924 FILLER_0_1_3
*925 FILLER_0_1_305
*926 FILLER_0_1_317
*927 FILLER_0_1_329
*928 FILLER_0_1_335
*929 FILLER_0_1_337
*930 FILLER_0_1_349
*931 FILLER_0_1_39
*932 FILLER_0_1_51
*933 FILLER_0_1_55
*934 FILLER_0_1_57
*935 FILLER_0_1_69
*936 FILLER_0_1_81
*937 FILLER_0_1_93
*938 FILLER_0_20_100
*939 FILLER_0_20_111
*940 FILLER_0_20_123
*941 FILLER_0_20_15
*942 FILLER_0_20_175
*943 FILLER_0_20_187
*944 FILLER_0_20_195
*945 FILLER_0_20_197
*946 FILLER_0_20_205
*947 FILLER_0_20_210
*948 FILLER_0_20_222
*949 FILLER_0_20_237
*950 FILLER_0_20_245
*951 FILLER_0_20_251
*952 FILLER_0_20_269
*953 FILLER_0_20_27
*954 FILLER_0_20_281
*955 FILLER_0_20_29
*956 FILLER_0_20_3
*957 FILLER_0_20_304
*958 FILLER_0_20_309
*959 FILLER_0_20_317
*960 FILLER_0_20_350
*961 FILLER_0_20_41
*962 FILLER_0_20_53
*963 FILLER_0_20_61
*964 FILLER_0_20_83
*965 FILLER_0_20_92
*966 FILLER_0_20_96
*967 FILLER_0_21_107
*968 FILLER_0_21_111
*969 FILLER_0_21_113
*970 FILLER_0_21_118
*971 FILLER_0_21_142
*972 FILLER_0_21_15
*973 FILLER_0_21_160
*974 FILLER_0_21_185
*975 FILLER_0_21_193
*976 FILLER_0_21_221
*977 FILLER_0_21_229
*978 FILLER_0_21_233
*979 FILLER_0_21_27
*980 FILLER_0_21_271
*981 FILLER_0_21_279
*982 FILLER_0_21_281
*983 FILLER_0_21_285
*984 FILLER_0_21_3
*985 FILLER_0_21_310
*986 FILLER_0_21_322
*987 FILLER_0_21_334
*988 FILLER_0_21_337
*989 FILLER_0_21_347
*990 FILLER_0_21_39
*991 FILLER_0_21_51
*992 FILLER_0_21_90
*993 FILLER_0_22_100
*994 FILLER_0_22_112
*995 FILLER_0_22_116
*996 FILLER_0_22_133
*997 FILLER_0_22_144
*998 FILLER_0_22_15
*999 FILLER_0_22_156
*1000 FILLER_0_22_168
*1001 FILLER_0_22_187
*1002 FILLER_0_22_197
*1003 FILLER_0_22_207
*1004 FILLER_0_22_244
*1005 FILLER_0_22_266
*1006 FILLER_0_22_27
*1007 FILLER_0_22_276
*1008 FILLER_0_22_29
*1009 FILLER_0_22_3
*1010 FILLER_0_22_309
*1011 FILLER_0_22_321
*1012 FILLER_0_22_347
*1013 FILLER_0_22_41
*1014 FILLER_0_22_82
*1015 FILLER_0_22_88
*1016 FILLER_0_23_111
*1017 FILLER_0_23_113
*1018 FILLER_0_23_125
*1019 FILLER_0_23_144
*1020 FILLER_0_23_148
*1021 FILLER_0_23_15
*1022 FILLER_0_23_160
*1023 FILLER_0_23_169
*1024 FILLER_0_23_190
*1025 FILLER_0_23_196
*1026 FILLER_0_23_205
*1027 FILLER_0_23_216
*1028 FILLER_0_23_222
*1029 FILLER_0_23_225
*1030 FILLER_0_23_237
*1031 FILLER_0_23_259
*1032 FILLER_0_23_27
*1033 FILLER_0_23_271
*1034 FILLER_0_23_279
*1035 FILLER_0_23_281
*1036 FILLER_0_23_3
*1037 FILLER_0_23_313
*1038 FILLER_0_23_319
*1039 FILLER_0_23_348
*1040 FILLER_0_23_39
*1041 FILLER_0_23_51
*1042 FILLER_0_23_57
*1043 FILLER_0_23_69
*1044 FILLER_0_23_78
*1045 FILLER_0_23_99
*1046 FILLER_0_24_117
*1047 FILLER_0_24_129
*1048 FILLER_0_24_15
*1049 FILLER_0_24_161
*1050 FILLER_0_24_173
*1051 FILLER_0_24_179
*1052 FILLER_0_24_197
*1053 FILLER_0_24_226
*1054 FILLER_0_24_234
*1055 FILLER_0_24_258
*1056 FILLER_0_24_27
*1057 FILLER_0_24_270
*1058 FILLER_0_24_278
*1059 FILLER_0_24_29
*1060 FILLER_0_24_297
*1061 FILLER_0_24_3
*1062 FILLER_0_24_306
*1063 FILLER_0_24_309
*1064 FILLER_0_24_317
*1065 FILLER_0_24_41
*1066 FILLER_0_24_52
*1067 FILLER_0_24_63
*1068 FILLER_0_24_67
*1069 FILLER_0_24_91
*1070 FILLER_0_25_113
*1071 FILLER_0_25_119
*1072 FILLER_0_25_123
*1073 FILLER_0_25_128
*1074 FILLER_0_25_147
*1075 FILLER_0_25_15
*1076 FILLER_0_25_173
*1077 FILLER_0_25_185
*1078 FILLER_0_25_207
*1079 FILLER_0_25_219
*1080 FILLER_0_25_223
*1081 FILLER_0_25_225
*1082 FILLER_0_25_256
*1083 FILLER_0_25_268
*1084 FILLER_0_25_27
*1085 FILLER_0_25_281
*1086 FILLER_0_25_293
*1087 FILLER_0_25_3
*1088 FILLER_0_25_323
*1089 FILLER_0_25_340
*1090 FILLER_0_25_348
*1091 FILLER_0_25_35
*1092 FILLER_0_25_52
*1093 FILLER_0_25_57
*1094 FILLER_0_25_69
*1095 FILLER_0_26_101
*1096 FILLER_0_26_112
*1097 FILLER_0_26_120
*1098 FILLER_0_26_132
*1099 FILLER_0_26_141
*1100 FILLER_0_26_15
*1101 FILLER_0_26_153
*1102 FILLER_0_26_163
*1103 FILLER_0_26_175
*1104 FILLER_0_26_187
*1105 FILLER_0_26_193
*1106 FILLER_0_26_200
*1107 FILLER_0_26_212
*1108 FILLER_0_26_224
*1109 FILLER_0_26_230
*1110 FILLER_0_26_250
*1111 FILLER_0_26_261
*1112 FILLER_0_26_27
*1113 FILLER_0_26_273
*1114 FILLER_0_26_289
*1115 FILLER_0_26_29
*1116 FILLER_0_26_3
*1117 FILLER_0_26_301
*1118 FILLER_0_26_307
*1119 FILLER_0_26_309
*1120 FILLER_0_26_338
*1121 FILLER_0_26_350
*1122 FILLER_0_26_85
*1123 FILLER_0_26_93
*1124 FILLER_0_27_120
*1125 FILLER_0_27_124
*1126 FILLER_0_27_130
*1127 FILLER_0_27_15
*1128 FILLER_0_27_159
*1129 FILLER_0_27_167
*1130 FILLER_0_27_169
*1131 FILLER_0_27_181
*1132 FILLER_0_27_188
*1133 FILLER_0_27_212
*1134 FILLER_0_27_225
*1135 FILLER_0_27_263
*1136 FILLER_0_27_27
*1137 FILLER_0_27_3
*1138 FILLER_0_27_304
*1139 FILLER_0_27_316
*1140 FILLER_0_27_328
*1141 FILLER_0_27_334
*1142 FILLER_0_27_343
*1143 FILLER_0_27_35
*1144 FILLER_0_27_69
*1145 FILLER_0_27_81
*1146 FILLER_0_27_94
*1147 FILLER_0_28_105
*1148 FILLER_0_28_138
*1149 FILLER_0_28_141
*1150 FILLER_0_28_145
*1151 FILLER_0_28_15
*1152 FILLER_0_28_160
*1153 FILLER_0_28_172
*1154 FILLER_0_28_219
*1155 FILLER_0_28_249
*1156 FILLER_0_28_27
*1157 FILLER_0_28_273
*1158 FILLER_0_28_29
*1159 FILLER_0_28_3
*1160 FILLER_0_28_307
*1161 FILLER_0_28_309
*1162 FILLER_0_28_321
*1163 FILLER_0_28_329
*1164 FILLER_0_28_346
*1165 FILLER_0_28_350
*1166 FILLER_0_28_64
*1167 FILLER_0_28_82
*1168 FILLER_0_29_124
*1169 FILLER_0_29_136
*1170 FILLER_0_29_148
*1171 FILLER_0_29_15
*1172 FILLER_0_29_162
*1173 FILLER_0_29_169
*1174 FILLER_0_29_181
*1175 FILLER_0_29_210
*1176 FILLER_0_29_222
*1177 FILLER_0_29_225
*1178 FILLER_0_29_237
*1179 FILLER_0_29_245
*1180 FILLER_0_29_252
*1181 FILLER_0_29_262
*1182 FILLER_0_29_27
*1183 FILLER_0_29_274
*1184 FILLER_0_29_288
*1185 FILLER_0_29_3
*1186 FILLER_0_29_319
*1187 FILLER_0_29_343
*1188 FILLER_0_29_35
*1189 FILLER_0_29_55
*1190 FILLER_0_29_81
*1191 FILLER_0_29_98
*1192 FILLER_0_2_109
*1193 FILLER_0_2_121
*1194 FILLER_0_2_133
*1195 FILLER_0_2_139
*1196 FILLER_0_2_141
*1197 FILLER_0_2_15
*1198 FILLER_0_2_153
*1199 FILLER_0_2_165
*1200 FILLER_0_2_177
*1201 FILLER_0_2_189
*1202 FILLER_0_2_195
*1203 FILLER_0_2_197
*1204 FILLER_0_2_209
*1205 FILLER_0_2_221
*1206 FILLER_0_2_233
*1207 FILLER_0_2_245
*1208 FILLER_0_2_251
*1209 FILLER_0_2_253
*1210 FILLER_0_2_265
*1211 FILLER_0_2_27
*1212 FILLER_0_2_277
*1213 FILLER_0_2_289
*1214 FILLER_0_2_29
*1215 FILLER_0_2_3
*1216 FILLER_0_2_301
*1217 FILLER_0_2_307
*1218 FILLER_0_2_309
*1219 FILLER_0_2_321
*1220 FILLER_0_2_333
*1221 FILLER_0_2_345
*1222 FILLER_0_2_41
*1223 FILLER_0_2_53
*1224 FILLER_0_2_65
*1225 FILLER_0_2_77
*1226 FILLER_0_2_83
*1227 FILLER_0_2_85
*1228 FILLER_0_2_97
*1229 FILLER_0_30_100
*1230 FILLER_0_30_106
*1231 FILLER_0_30_130
*1232 FILLER_0_30_138
*1233 FILLER_0_30_141
*1234 FILLER_0_30_15
*1235 FILLER_0_30_159
*1236 FILLER_0_30_171
*1237 FILLER_0_30_175
*1238 FILLER_0_30_186
*1239 FILLER_0_30_194
*1240 FILLER_0_30_197
*1241 FILLER_0_30_209
*1242 FILLER_0_30_221
*1243 FILLER_0_30_248
*1244 FILLER_0_30_253
*1245 FILLER_0_30_27
*1246 FILLER_0_30_281
*1247 FILLER_0_30_29
*1248 FILLER_0_30_3
*1249 FILLER_0_30_305
*1250 FILLER_0_30_309
*1251 FILLER_0_30_327
*1252 FILLER_0_30_345
*1253 FILLER_0_30_37
*1254 FILLER_0_30_56
*1255 FILLER_0_30_60
*1256 FILLER_0_30_64
*1257 FILLER_0_30_76
*1258 FILLER_0_30_80
*1259 FILLER_0_30_85
*1260 FILLER_0_30_93
*1261 FILLER_0_31_105
*1262 FILLER_0_31_111
*1263 FILLER_0_31_113
*1264 FILLER_0_31_122
*1265 FILLER_0_31_128
*1266 FILLER_0_31_15
*1267 FILLER_0_31_154
*1268 FILLER_0_31_166
*1269 FILLER_0_31_169
*1270 FILLER_0_31_181
*1271 FILLER_0_31_193
*1272 FILLER_0_31_205
*1273 FILLER_0_31_217
*1274 FILLER_0_31_223
*1275 FILLER_0_31_253
*1276 FILLER_0_31_261
*1277 FILLER_0_31_27
*1278 FILLER_0_31_279
*1279 FILLER_0_31_294
*1280 FILLER_0_31_3
*1281 FILLER_0_31_317
*1282 FILLER_0_31_343
*1283 FILLER_0_31_39
*1284 FILLER_0_31_51
*1285 FILLER_0_31_55
*1286 FILLER_0_31_57
*1287 FILLER_0_31_69
*1288 FILLER_0_31_81
*1289 FILLER_0_31_93
*1290 FILLER_0_32_119
*1291 FILLER_0_32_128
*1292 FILLER_0_32_134
*1293 FILLER_0_32_15
*1294 FILLER_0_32_157
*1295 FILLER_0_32_168
*1296 FILLER_0_32_177
*1297 FILLER_0_32_189
*1298 FILLER_0_32_195
*1299 FILLER_0_32_210
*1300 FILLER_0_32_218
*1301 FILLER_0_32_246
*1302 FILLER_0_32_253
*1303 FILLER_0_32_265
*1304 FILLER_0_32_27
*1305 FILLER_0_32_277
*1306 FILLER_0_32_285
*1307 FILLER_0_32_289
*1308 FILLER_0_32_29
*1309 FILLER_0_32_297
*1310 FILLER_0_32_3
*1311 FILLER_0_32_305
*1312 FILLER_0_32_309
*1313 FILLER_0_32_313
*1314 FILLER_0_32_349
*1315 FILLER_0_32_41
*1316 FILLER_0_32_53
*1317 FILLER_0_32_65
*1318 FILLER_0_32_77
*1319 FILLER_0_32_83
*1320 FILLER_0_32_85
*1321 FILLER_0_32_97
*1322 FILLER_0_33_105
*1323 FILLER_0_33_111
*1324 FILLER_0_33_113
*1325 FILLER_0_33_125
*1326 FILLER_0_33_133
*1327 FILLER_0_33_139
*1328 FILLER_0_33_15
*1329 FILLER_0_33_151
*1330 FILLER_0_33_158
*1331 FILLER_0_33_169
*1332 FILLER_0_33_184
*1333 FILLER_0_33_207
*1334 FILLER_0_33_216
*1335 FILLER_0_33_225
*1336 FILLER_0_33_235
*1337 FILLER_0_33_247
*1338 FILLER_0_33_259
*1339 FILLER_0_33_27
*1340 FILLER_0_33_271
*1341 FILLER_0_33_279
*1342 FILLER_0_33_281
*1343 FILLER_0_33_287
*1344 FILLER_0_33_293
*1345 FILLER_0_33_3
*1346 FILLER_0_33_305
*1347 FILLER_0_33_329
*1348 FILLER_0_33_334
*1349 FILLER_0_33_337
*1350 FILLER_0_33_349
*1351 FILLER_0_33_39
*1352 FILLER_0_33_51
*1353 FILLER_0_33_55
*1354 FILLER_0_33_57
*1355 FILLER_0_33_69
*1356 FILLER_0_33_81
*1357 FILLER_0_33_93
*1358 FILLER_0_34_105
*1359 FILLER_0_34_111
*1360 FILLER_0_34_123
*1361 FILLER_0_34_135
*1362 FILLER_0_34_139
*1363 FILLER_0_34_141
*1364 FILLER_0_34_15
*1365 FILLER_0_34_153
*1366 FILLER_0_34_160
*1367 FILLER_0_34_174
*1368 FILLER_0_34_186
*1369 FILLER_0_34_194
*1370 FILLER_0_34_211
*1371 FILLER_0_34_223
*1372 FILLER_0_34_227
*1373 FILLER_0_34_249
*1374 FILLER_0_34_253
*1375 FILLER_0_34_27
*1376 FILLER_0_34_275
*1377 FILLER_0_34_281
*1378 FILLER_0_34_288
*1379 FILLER_0_34_29
*1380 FILLER_0_34_3
*1381 FILLER_0_34_309
*1382 FILLER_0_34_317
*1383 FILLER_0_34_335
*1384 FILLER_0_34_347
*1385 FILLER_0_34_41
*1386 FILLER_0_34_53
*1387 FILLER_0_34_65
*1388 FILLER_0_34_77
*1389 FILLER_0_34_83
*1390 FILLER_0_34_85
*1391 FILLER_0_34_97
*1392 FILLER_0_35_105
*1393 FILLER_0_35_111
*1394 FILLER_0_35_113
*1395 FILLER_0_35_125
*1396 FILLER_0_35_137
*1397 FILLER_0_35_149
*1398 FILLER_0_35_15
*1399 FILLER_0_35_161
*1400 FILLER_0_35_167
*1401 FILLER_0_35_169
*1402 FILLER_0_35_181
*1403 FILLER_0_35_193
*1404 FILLER_0_35_197
*1405 FILLER_0_35_203
*1406 FILLER_0_35_215
*1407 FILLER_0_35_263
*1408 FILLER_0_35_269
*1409 FILLER_0_35_27
*1410 FILLER_0_35_277
*1411 FILLER_0_35_284
*1412 FILLER_0_35_292
*1413 FILLER_0_35_3
*1414 FILLER_0_35_314
*1415 FILLER_0_35_343
*1416 FILLER_0_35_39
*1417 FILLER_0_35_51
*1418 FILLER_0_35_55
*1419 FILLER_0_35_57
*1420 FILLER_0_35_69
*1421 FILLER_0_35_81
*1422 FILLER_0_35_93
*1423 FILLER_0_36_109
*1424 FILLER_0_36_121
*1425 FILLER_0_36_133
*1426 FILLER_0_36_139
*1427 FILLER_0_36_141
*1428 FILLER_0_36_15
*1429 FILLER_0_36_153
*1430 FILLER_0_36_165
*1431 FILLER_0_36_177
*1432 FILLER_0_36_189
*1433 FILLER_0_36_195
*1434 FILLER_0_36_197
*1435 FILLER_0_36_209
*1436 FILLER_0_36_226
*1437 FILLER_0_36_230
*1438 FILLER_0_36_251
*1439 FILLER_0_36_265
*1440 FILLER_0_36_27
*1441 FILLER_0_36_29
*1442 FILLER_0_36_290
*1443 FILLER_0_36_3
*1444 FILLER_0_36_309
*1445 FILLER_0_36_328
*1446 FILLER_0_36_346
*1447 FILLER_0_36_350
*1448 FILLER_0_36_41
*1449 FILLER_0_36_53
*1450 FILLER_0_36_65
*1451 FILLER_0_36_77
*1452 FILLER_0_36_83
*1453 FILLER_0_36_85
*1454 FILLER_0_36_97
*1455 FILLER_0_37_105
*1456 FILLER_0_37_111
*1457 FILLER_0_37_113
*1458 FILLER_0_37_125
*1459 FILLER_0_37_137
*1460 FILLER_0_37_149
*1461 FILLER_0_37_15
*1462 FILLER_0_37_161
*1463 FILLER_0_37_167
*1464 FILLER_0_37_169
*1465 FILLER_0_37_181
*1466 FILLER_0_37_188
*1467 FILLER_0_37_200
*1468 FILLER_0_37_225
*1469 FILLER_0_37_237
*1470 FILLER_0_37_241
*1471 FILLER_0_37_248
*1472 FILLER_0_37_261
*1473 FILLER_0_37_27
*1474 FILLER_0_37_273
*1475 FILLER_0_37_279
*1476 FILLER_0_37_3
*1477 FILLER_0_37_322
*1478 FILLER_0_37_326
*1479 FILLER_0_37_334
*1480 FILLER_0_37_337
*1481 FILLER_0_37_349
*1482 FILLER_0_37_39
*1483 FILLER_0_37_51
*1484 FILLER_0_37_55
*1485 FILLER_0_37_57
*1486 FILLER_0_37_69
*1487 FILLER_0_37_81
*1488 FILLER_0_37_93
*1489 FILLER_0_38_102
*1490 FILLER_0_38_106
*1491 FILLER_0_38_110
*1492 FILLER_0_38_113
*1493 FILLER_0_38_118
*1494 FILLER_0_38_122
*1495 FILLER_0_38_126
*1496 FILLER_0_38_130
*1497 FILLER_0_38_134
*1498 FILLER_0_38_14
*1499 FILLER_0_38_144
*1500 FILLER_0_38_150
*1501 FILLER_0_38_154
*1502 FILLER_0_38_158
*1503 FILLER_0_38_162
*1504 FILLER_0_38_166
*1505 FILLER_0_38_169
*1506 FILLER_0_38_174
*1507 FILLER_0_38_178
*1508 FILLER_0_38_18
*1509 FILLER_0_38_182
*1510 FILLER_0_38_186
*1511 FILLER_0_38_190
*1512 FILLER_0_38_197
*1513 FILLER_0_38_209
*1514 FILLER_0_38_22
*1515 FILLER_0_38_221
*1516 FILLER_0_38_225
*1517 FILLER_0_38_237
*1518 FILLER_0_38_244
*1519 FILLER_0_38_249
*1520 FILLER_0_38_253
*1521 FILLER_0_38_265
*1522 FILLER_0_38_277
*1523 FILLER_0_38_281
*1524 FILLER_0_38_289
*1525 FILLER_0_38_294
*1526 FILLER_0_38_298
*1527 FILLER_0_38_3
*1528 FILLER_0_38_302
*1529 FILLER_0_38_312
*1530 FILLER_0_38_32
*1531 FILLER_0_38_337
*1532 FILLER_0_38_349
*1533 FILLER_0_38_38
*1534 FILLER_0_38_42
*1535 FILLER_0_38_46
*1536 FILLER_0_38_50
*1537 FILLER_0_38_54
*1538 FILLER_0_38_57
*1539 FILLER_0_38_62
*1540 FILLER_0_38_66
*1541 FILLER_0_38_70
*1542 FILLER_0_38_74
*1543 FILLER_0_38_78
*1544 FILLER_0_38_88
*1545 FILLER_0_38_94
*1546 FILLER_0_38_98
*1547 FILLER_0_3_105
*1548 FILLER_0_3_111
*1549 FILLER_0_3_113
*1550 FILLER_0_3_125
*1551 FILLER_0_3_137
*1552 FILLER_0_3_149
*1553 FILLER_0_3_15
*1554 FILLER_0_3_161
*1555 FILLER_0_3_167
*1556 FILLER_0_3_169
*1557 FILLER_0_3_181
*1558 FILLER_0_3_193
*1559 FILLER_0_3_205
*1560 FILLER_0_3_217
*1561 FILLER_0_3_223
*1562 FILLER_0_3_225
*1563 FILLER_0_3_237
*1564 FILLER_0_3_249
*1565 FILLER_0_3_261
*1566 FILLER_0_3_27
*1567 FILLER_0_3_273
*1568 FILLER_0_3_279
*1569 FILLER_0_3_281
*1570 FILLER_0_3_293
*1571 FILLER_0_3_3
*1572 FILLER_0_3_305
*1573 FILLER_0_3_317
*1574 FILLER_0_3_329
*1575 FILLER_0_3_335
*1576 FILLER_0_3_337
*1577 FILLER_0_3_349
*1578 FILLER_0_3_39
*1579 FILLER_0_3_51
*1580 FILLER_0_3_55
*1581 FILLER_0_3_57
*1582 FILLER_0_3_69
*1583 FILLER_0_3_81
*1584 FILLER_0_3_93
*1585 FILLER_0_4_109
*1586 FILLER_0_4_121
*1587 FILLER_0_4_133
*1588 FILLER_0_4_139
*1589 FILLER_0_4_141
*1590 FILLER_0_4_15
*1591 FILLER_0_4_153
*1592 FILLER_0_4_165
*1593 FILLER_0_4_177
*1594 FILLER_0_4_189
*1595 FILLER_0_4_195
*1596 FILLER_0_4_197
*1597 FILLER_0_4_209
*1598 FILLER_0_4_221
*1599 FILLER_0_4_233
*1600 FILLER_0_4_245
*1601 FILLER_0_4_251
*1602 FILLER_0_4_253
*1603 FILLER_0_4_265
*1604 FILLER_0_4_27
*1605 FILLER_0_4_277
*1606 FILLER_0_4_289
*1607 FILLER_0_4_29
*1608 FILLER_0_4_3
*1609 FILLER_0_4_301
*1610 FILLER_0_4_307
*1611 FILLER_0_4_309
*1612 FILLER_0_4_321
*1613 FILLER_0_4_333
*1614 FILLER_0_4_345
*1615 FILLER_0_4_41
*1616 FILLER_0_4_53
*1617 FILLER_0_4_65
*1618 FILLER_0_4_77
*1619 FILLER_0_4_83
*1620 FILLER_0_4_85
*1621 FILLER_0_4_97
*1622 FILLER_0_5_105
*1623 FILLER_0_5_111
*1624 FILLER_0_5_113
*1625 FILLER_0_5_125
*1626 FILLER_0_5_137
*1627 FILLER_0_5_149
*1628 FILLER_0_5_15
*1629 FILLER_0_5_161
*1630 FILLER_0_5_167
*1631 FILLER_0_5_169
*1632 FILLER_0_5_181
*1633 FILLER_0_5_193
*1634 FILLER_0_5_205