*SPEF "ieee 1481-1999"
*DESIGN "tt_um_top"
*DATE "11:11:11 Fri 11 11, 1111"
*VENDOR "OpenRCX"
*PROGRAM "Parallel Extraction"
*VERSION "1.0"
*DESIGN_FLOW "NAME_SCOPE LOCAL" "PIN_CAP NONE"
*DIVIDER /
*DELIMITER :
*BUS_DELIMITER []
*T_UNIT 1 NS
*C_UNIT 1 PF
*R_UNIT 1 OHM
*L_UNIT 1 HENRY

*NAME_MAP
*3 clk
*4 ena
*5 rst_n
*6 ui_in[0]
*7 ui_in[1]
*8 ui_in[2]
*9 ui_in[3]
*10 ui_in[4]
*11 ui_in[5]
*12 ui_in[6]
*13 ui_in[7]
*14 uio_in[0]
*15 uio_in[1]
*16 uio_in[2]
*17 uio_in[3]
*18 uio_in[4]
*19 uio_in[5]
*20 uio_in[6]
*21 uio_in[7]
*22 net21
*23 net22
*24 net23
*25 net24
*26 net25
*27 net26
*28 net27
*29 net28
*30 net19
*31 uio_out[1]
*32 uio_out[2]
*33 uio_out[3]
*34 uio_out[4]
*35 uio_out[5]
*36 uio_out[6]
*37 uio_out[7]
*38 net20
*39 uo_out[1]
*40 uo_out[2]
*41 uo_out[3]
*42 uo_out[4]
*43 uo_out[5]
*44 uo_out[6]
*45 uo_out[7]
*46 _000_
*47 _001_
*48 _002_
*49 _003_
*50 _004_
*51 _005_
*52 _006_
*53 _007_
*54 _008_
*55 _009_
*56 _010_
*57 _011_
*58 _012_
*59 _013_
*60 _014_
*61 _015_
*62 _016_
*63 _017_
*64 _018_
*65 _019_
*66 _020_
*67 _021_
*68 _022_
*69 _023_
*70 _024_
*71 _025_
*72 _026_
*73 _027_
*74 _028_
*75 _029_
*76 _030_
*77 _031_
*78 _032_
*79 _033_
*80 _034_
*81 _035_
*82 _036_
*83 _037_
*84 _038_
*85 _039_
*86 _040_
*87 _041_
*88 _042_
*89 _043_
*90 _044_
*91 _045_
*92 _046_
*93 _047_
*94 _048_
*95 _049_
*96 _050_
*97 _051_
*98 _052_
*99 _053_
*100 _054_
*101 _055_
*102 _056_
*103 _057_
*104 _058_
*105 _059_
*106 _060_
*107 _061_
*108 _062_
*109 _063_
*110 _064_
*111 _065_
*112 _066_
*113 _067_
*114 _068_
*115 _069_
*116 _070_
*117 _071_
*118 _072_
*119 _073_
*120 _074_
*121 _075_
*122 _076_
*123 _077_
*124 _078_
*125 _079_
*126 _080_
*127 _081_
*128 _082_
*129 _083_
*130 _084_
*131 _085_
*132 _086_
*133 _087_
*134 _088_
*135 _089_
*136 _090_
*137 _091_
*138 _092_
*139 _093_
*140 _094_
*141 _095_
*142 _096_
*143 _097_
*144 _098_
*145 _099_
*146 _100_
*147 _101_
*148 _102_
*149 _103_
*150 _104_
*151 _105_
*152 _106_
*153 _107_
*154 _108_
*155 _109_
*156 _110_
*157 _111_
*158 _112_
*159 _113_
*160 _114_
*161 _115_
*162 _116_
*163 _117_
*164 _118_
*165 _119_
*166 _120_
*167 _121_
*168 _122_
*169 _123_
*170 _124_
*171 _125_
*172 _126_
*173 _127_
*174 _128_
*175 _129_
*176 _130_
*177 _131_
*178 _132_
*179 _133_
*180 _134_
*181 _135_
*182 _136_
*183 _137_
*184 _138_
*185 _139_
*186 _140_
*187 _141_
*188 _142_
*189 _143_
*190 _144_
*191 _145_
*192 _146_
*193 _147_
*194 _148_
*195 _149_
*196 _150_
*197 _151_
*198 _152_
*199 _153_
*200 _154_
*201 _155_
*202 _156_
*203 _157_
*204 _158_
*205 _159_
*206 _160_
*207 _161_
*208 _162_
*209 _163_
*210 _164_
*211 _165_
*212 _166_
*213 _167_
*214 _168_
*215 _169_
*216 _170_
*217 _171_
*218 _172_
*219 _173_
*220 _174_
*221 _175_
*222 _176_
*223 _177_
*224 _178_
*225 _179_
*226 _180_
*227 _181_
*228 _182_
*229 _183_
*230 _184_
*231 _185_
*232 _186_
*233 _187_
*234 _188_
*235 _189_
*236 _190_
*237 _191_
*238 _192_
*239 _193_
*240 _194_
*241 _195_
*242 _196_
*243 _197_
*244 _198_
*245 _199_
*246 _200_
*247 _201_
*248 _202_
*249 _203_
*250 _204_
*251 _205_
*252 _206_
*253 _207_
*254 _208_
*255 _209_
*256 _210_
*257 _211_
*258 _212_
*259 _213_
*260 _214_
*261 _215_
*262 _216_
*263 _217_
*264 _218_
*265 _219_
*266 _220_
*267 _221_
*268 _222_
*269 _223_
*270 _224_
*271 _225_
*272 _226_
*273 _227_
*274 _228_
*275 _229_
*276 _230_
*277 _231_
*278 _232_
*279 _233_
*280 _234_
*281 _235_
*282 _236_
*283 _237_
*284 _238_
*285 _239_
*286 _240_
*287 _241_
*288 _242_
*289 _243_
*290 _244_
*291 _245_
*292 _246_
*293 _247_
*294 _248_
*295 _249_
*296 _250_
*297 _251_
*298 _252_
*299 _253_
*300 _254_
*301 _255_
*302 _256_
*303 _257_
*304 _258_
*305 _259_
*306 _260_
*307 _261_
*308 _262_
*309 _263_
*310 _264_
*311 _265_
*312 _266_
*313 _267_
*314 _268_
*315 _269_
*316 _270_
*317 _271_
*318 _272_
*319 _273_
*320 _274_
*321 _275_
*322 _276_
*323 _277_
*324 _278_
*325 _279_
*326 _280_
*327 _281_
*328 _282_
*329 _283_
*330 _284_
*331 _285_
*332 _286_
*333 _287_
*334 _288_
*335 _289_
*336 clknet_0_clk
*337 clknet_2_0__leaf_clk
*338 clknet_2_1__leaf_clk
*339 clknet_2_2__leaf_clk
*340 clknet_2_3__leaf_clk
*341 counter\[0\]
*342 counter\[10\]
*343 counter\[11\]
*344 counter\[12\]
*345 counter\[13\]
*346 counter\[14\]
*347 counter\[15\]
*348 counter\[16\]
*349 counter\[17\]
*350 counter\[18\]
*351 counter\[19\]
*352 counter\[1\]
*353 counter\[20\]
*354 counter\[21\]
*355 counter\[22\]
*356 counter\[23\]
*357 counter\[24\]
*358 counter\[25\]
*359 counter\[26\]
*360 counter\[27\]
*361 counter\[28\]
*362 counter\[29\]
*363 counter\[2\]
*364 counter\[30\]
*365 counter\[31\]
*366 counter\[3\]
*367 counter\[4\]
*368 counter\[5\]
*369 counter\[6\]
*370 counter\[7\]
*371 counter\[8\]
*372 counter\[9\]
*373 counter_50M\[0\]
*374 counter_50M\[10\]
*375 counter_50M\[11\]
*376 counter_50M\[12\]
*377 counter_50M\[13\]
*378 counter_50M\[14\]
*379 counter_50M\[15\]
*380 counter_50M\[16\]
*381 counter_50M\[17\]
*382 counter_50M\[18\]
*383 counter_50M\[19\]
*384 counter_50M\[1\]
*385 counter_50M\[20\]
*386 counter_50M\[21\]
*387 counter_50M\[22\]
*388 counter_50M\[23\]
*389 counter_50M\[24\]
*390 counter_50M\[25\]
*391 counter_50M\[26\]
*392 counter_50M\[27\]
*393 counter_50M\[28\]
*394 counter_50M\[29\]
*395 counter_50M\[2\]
*396 counter_50M\[30\]
*397 counter_50M\[31\]
*398 counter_50M\[3\]
*399 counter_50M\[4\]
*400 counter_50M\[5\]
*401 counter_50M\[6\]
*402 counter_50M\[7\]
*403 counter_50M\[8\]
*404 counter_50M\[9\]
*405 lfsr_control\.clk12_5Mhz
*406 lfsr_control\.feedback
*407 lfsr_data\.clk1hz
*408 lfsr_data\.feedback
*409 mux\.mux_inst_loop\[0\]\.mux_inst\.a
*410 mux\.mux_inst_loop\[0\]\.mux_inst\.b
*411 mux\.mux_inst_loop\[0\]\.mux_inst\.select
*412 mux\.mux_inst_loop\[1\]\.mux_inst\.a
*413 mux\.mux_inst_loop\[1\]\.mux_inst\.b
*414 mux\.mux_inst_loop\[1\]\.mux_inst\.select
*415 mux\.mux_inst_loop\[2\]\.mux_inst\.a
*416 mux\.mux_inst_loop\[2\]\.mux_inst\.b
*417 mux\.mux_inst_loop\[2\]\.mux_inst\.select
*418 mux\.mux_inst_loop\[3\]\.mux_inst\.a
*419 mux\.mux_inst_loop\[3\]\.mux_inst\.b
*420 mux\.mux_inst_loop\[3\]\.mux_inst\.select
*421 mux\.mux_inst_loop\[4\]\.mux_inst\.a
*422 mux\.mux_inst_loop\[4\]\.mux_inst\.b
*423 mux\.mux_inst_loop\[4\]\.mux_inst\.select
*424 mux\.mux_inst_loop\[5\]\.mux_inst\.a
*425 mux\.mux_inst_loop\[5\]\.mux_inst\.b
*426 mux\.mux_inst_loop\[5\]\.mux_inst\.select
*427 mux\.mux_inst_loop\[6\]\.mux_inst\.a
*428 mux\.mux_inst_loop\[6\]\.mux_inst\.b
*429 mux\.mux_inst_loop\[6\]\.mux_inst\.select
*430 mux\.mux_inst_loop\[7\]\.mux_inst\.a
*431 mux\.mux_inst_loop\[7\]\.mux_inst\.b
*432 mux\.mux_inst_loop\[7\]\.mux_inst\.select
*433 net1
*434 net10
*435 net11
*436 net12
*437 net13
*438 net14
*439 net15
*440 net16
*441 net17
*442 net18
*443 net2
*444 net29
*445 net3
*446 net30
*447 net31
*448 net32
*449 net33
*450 net34
*451 net35
*452 net36
*453 net37
*454 net38
*455 net39
*456 net4
*457 net40
*458 net41
*459 net42
*460 net43
*461 net44
*462 net45
*463 net46
*464 net47
*465 net48
*466 net49
*467 net5
*468 net50
*469 net51
*470 net52
*471 net53
*472 net54
*473 net6
*474 net7
*475 net8
*476 net9
*477 FILLER_0_0_109
*478 FILLER_0_0_113
*479 FILLER_0_0_125
*480 FILLER_0_0_137
*481 FILLER_0_0_141
*482 FILLER_0_0_15
*483 FILLER_0_0_153
*484 FILLER_0_0_165
*485 FILLER_0_0_169
*486 FILLER_0_0_181
*487 FILLER_0_0_193
*488 FILLER_0_0_197
*489 FILLER_0_0_209
*490 FILLER_0_0_221
*491 FILLER_0_0_225
*492 FILLER_0_0_237
*493 FILLER_0_0_249
*494 FILLER_0_0_253
*495 FILLER_0_0_265
*496 FILLER_0_0_27
*497 FILLER_0_0_277
*498 FILLER_0_0_281
*499 FILLER_0_0_29
*500 FILLER_0_0_293
*501 FILLER_0_0_3
*502 FILLER_0_0_305
*503 FILLER_0_0_309
*504 FILLER_0_0_321
*505 FILLER_0_0_333
*506 FILLER_0_0_337
*507 FILLER_0_0_349
*508 FILLER_0_0_41
*509 FILLER_0_0_53
*510 FILLER_0_0_57
*511 FILLER_0_0_69
*512 FILLER_0_0_81
*513 FILLER_0_0_85
*514 FILLER_0_0_97
*515 FILLER_0_10_109
*516 FILLER_0_10_121
*517 FILLER_0_10_133
*518 FILLER_0_10_139
*519 FILLER_0_10_141
*520 FILLER_0_10_15
*521 FILLER_0_10_153
*522 FILLER_0_10_165
*523 FILLER_0_10_177
*524 FILLER_0_10_189
*525 FILLER_0_10_195
*526 FILLER_0_10_197
*527 FILLER_0_10_209
*528 FILLER_0_10_221
*529 FILLER_0_10_233
*530 FILLER_0_10_245
*531 FILLER_0_10_251
*532 FILLER_0_10_253
*533 FILLER_0_10_265
*534 FILLER_0_10_27
*535 FILLER_0_10_277
*536 FILLER_0_10_289
*537 FILLER_0_10_29
*538 FILLER_0_10_3
*539 FILLER_0_10_301
*540 FILLER_0_10_307
*541 FILLER_0_10_309
*542 FILLER_0_10_321
*543 FILLER_0_10_333
*544 FILLER_0_10_345
*545 FILLER_0_10_41
*546 FILLER_0_10_53
*547 FILLER_0_10_65
*548 FILLER_0_10_77
*549 FILLER_0_10_83
*550 FILLER_0_10_85
*551 FILLER_0_10_97
*552 FILLER_0_11_105
*553 FILLER_0_11_111
*554 FILLER_0_11_113
*555 FILLER_0_11_125
*556 FILLER_0_11_137
*557 FILLER_0_11_149
*558 FILLER_0_11_15
*559 FILLER_0_11_161
*560 FILLER_0_11_167
*561 FILLER_0_11_169
*562 FILLER_0_11_181
*563 FILLER_0_11_193
*564 FILLER_0_11_205
*565 FILLER_0_11_217
*566 FILLER_0_11_223
*567 FILLER_0_11_225
*568 FILLER_0_11_237
*569 FILLER_0_11_249
*570 FILLER_0_11_261
*571 FILLER_0_11_27
*572 FILLER_0_11_273
*573 FILLER_0_11_279
*574 FILLER_0_11_281
*575 FILLER_0_11_293
*576 FILLER_0_11_3
*577 FILLER_0_11_305
*578 FILLER_0_11_317
*579 FILLER_0_11_329
*580 FILLER_0_11_335
*581 FILLER_0_11_337
*582 FILLER_0_11_349
*583 FILLER_0_11_39
*584 FILLER_0_11_51
*585 FILLER_0_11_55
*586 FILLER_0_11_57
*587 FILLER_0_11_69
*588 FILLER_0_11_81
*589 FILLER_0_11_93
*590 FILLER_0_12_109
*591 FILLER_0_12_121
*592 FILLER_0_12_133
*593 FILLER_0_12_139
*594 FILLER_0_12_141
*595 FILLER_0_12_15
*596 FILLER_0_12_153
*597 FILLER_0_12_165
*598 FILLER_0_12_177
*599 FILLER_0_12_189
*600 FILLER_0_12_195
*601 FILLER_0_12_197
*602 FILLER_0_12_209
*603 FILLER_0_12_221
*604 FILLER_0_12_233
*605 FILLER_0_12_245
*606 FILLER_0_12_251
*607 FILLER_0_12_253
*608 FILLER_0_12_265
*609 FILLER_0_12_27
*610 FILLER_0_12_277
*611 FILLER_0_12_289
*612 FILLER_0_12_29
*613 FILLER_0_12_3
*614 FILLER_0_12_301
*615 FILLER_0_12_307
*616 FILLER_0_12_309
*617 FILLER_0_12_321
*618 FILLER_0_12_333
*619 FILLER_0_12_345
*620 FILLER_0_12_41
*621 FILLER_0_12_53
*622 FILLER_0_12_65
*623 FILLER_0_12_77
*624 FILLER_0_12_83
*625 FILLER_0_12_85
*626 FILLER_0_12_97
*627 FILLER_0_13_105
*628 FILLER_0_13_111
*629 FILLER_0_13_113
*630 FILLER_0_13_125
*631 FILLER_0_13_137
*632 FILLER_0_13_149
*633 FILLER_0_13_15
*634 FILLER_0_13_161
*635 FILLER_0_13_167
*636 FILLER_0_13_169
*637 FILLER_0_13_181
*638 FILLER_0_13_193
*639 FILLER_0_13_205
*640 FILLER_0_13_217
*641 FILLER_0_13_223
*642 FILLER_0_13_225
*643 FILLER_0_13_237
*644 FILLER_0_13_249
*645 FILLER_0_13_261
*646 FILLER_0_13_27
*647 FILLER_0_13_273
*648 FILLER_0_13_279
*649 FILLER_0_13_281
*650 FILLER_0_13_293
*651 FILLER_0_13_3
*652 FILLER_0_13_305
*653 FILLER_0_13_317
*654 FILLER_0_13_329
*655 FILLER_0_13_335
*656 FILLER_0_13_337
*657 FILLER_0_13_349
*658 FILLER_0_13_39
*659 FILLER_0_13_51
*660 FILLER_0_13_55
*661 FILLER_0_13_57
*662 FILLER_0_13_69
*663 FILLER_0_13_81
*664 FILLER_0_13_93
*665 FILLER_0_14_109
*666 FILLER_0_14_121
*667 FILLER_0_14_133
*668 FILLER_0_14_139
*669 FILLER_0_14_141
*670 FILLER_0_14_15
*671 FILLER_0_14_153
*672 FILLER_0_14_165
*673 FILLER_0_14_177
*674 FILLER_0_14_189
*675 FILLER_0_14_195
*676 FILLER_0_14_197
*677 FILLER_0_14_209
*678 FILLER_0_14_221
*679 FILLER_0_14_233
*680 FILLER_0_14_245
*681 FILLER_0_14_251
*682 FILLER_0_14_253
*683 FILLER_0_14_265
*684 FILLER_0_14_27
*685 FILLER_0_14_277
*686 FILLER_0_14_289
*687 FILLER_0_14_29
*688 FILLER_0_14_3
*689 FILLER_0_14_301
*690 FILLER_0_14_307
*691 FILLER_0_14_309
*692 FILLER_0_14_321
*693 FILLER_0_14_333
*694 FILLER_0_14_345
*695 FILLER_0_14_41
*696 FILLER_0_14_53
*697 FILLER_0_14_65
*698 FILLER_0_14_77
*699 FILLER_0_14_83
*700 FILLER_0_14_85
*701 FILLER_0_14_97
*702 FILLER_0_15_107
*703 FILLER_0_15_111
*704 FILLER_0_15_113
*705 FILLER_0_15_123
*706 FILLER_0_15_146
*707 FILLER_0_15_15
*708 FILLER_0_15_158
*709 FILLER_0_15_166
*710 FILLER_0_15_189
*711 FILLER_0_15_201
*712 FILLER_0_15_213
*713 FILLER_0_15_221
*714 FILLER_0_15_225
*715 FILLER_0_15_237
*716 FILLER_0_15_249
*717 FILLER_0_15_261
*718 FILLER_0_15_27
*719 FILLER_0_15_273
*720 FILLER_0_15_279
*721 FILLER_0_15_281
*722 FILLER_0_15_293
*723 FILLER_0_15_3
*724 FILLER_0_15_305
*725 FILLER_0_15_317
*726 FILLER_0_15_329
*727 FILLER_0_15_335
*728 FILLER_0_15_337
*729 FILLER_0_15_349
*730 FILLER_0_15_50
*731 FILLER_0_15_57
*732 FILLER_0_15_69
*733 FILLER_0_15_81
*734 FILLER_0_15_89
*735 FILLER_0_15_95
*736 FILLER_0_16_139
*737 FILLER_0_16_141
*738 FILLER_0_16_15
*739 FILLER_0_16_153
*740 FILLER_0_16_188
*741 FILLER_0_16_197
*742 FILLER_0_16_209
*743 FILLER_0_16_221
*744 FILLER_0_16_233
*745 FILLER_0_16_245
*746 FILLER_0_16_251
*747 FILLER_0_16_253
*748 FILLER_0_16_265
*749 FILLER_0_16_27
*750 FILLER_0_16_277
*751 FILLER_0_16_289
*752 FILLER_0_16_29
*753 FILLER_0_16_3
*754 FILLER_0_16_301
*755 FILLER_0_16_307
*756 FILLER_0_16_309
*757 FILLER_0_16_321
*758 FILLER_0_16_333
*759 FILLER_0_16_345
*760 FILLER_0_16_55
*761 FILLER_0_16_67
*762 FILLER_0_16_79
*763 FILLER_0_16_83
*764 FILLER_0_17_105
*765 FILLER_0_17_113
*766 FILLER_0_17_126
*767 FILLER_0_17_15
*768 FILLER_0_17_155
*769 FILLER_0_17_187
*770 FILLER_0_17_199
*771 FILLER_0_17_211
*772 FILLER_0_17_223
*773 FILLER_0_17_225
*774 FILLER_0_17_237
*775 FILLER_0_17_249
*776 FILLER_0_17_261
*777 FILLER_0_17_273
*778 FILLER_0_17_279
*779 FILLER_0_17_281
*780 FILLER_0_17_293
*781 FILLER_0_17_3
*782 FILLER_0_17_305
*783 FILLER_0_17_317
*784 FILLER_0_17_329
*785 FILLER_0_17_335
*786 FILLER_0_17_337
*787 FILLER_0_17_349
*788 FILLER_0_17_63
*789 FILLER_0_18_106
*790 FILLER_0_18_121
*791 FILLER_0_18_128
*792 FILLER_0_18_141
*793 FILLER_0_18_15
*794 FILLER_0_18_153
*795 FILLER_0_18_161
*796 FILLER_0_18_174
*797 FILLER_0_18_189
*798 FILLER_0_18_197
*799 FILLER_0_18_201
*800 FILLER_0_18_222
*801 FILLER_0_18_234
*802 FILLER_0_18_246
*803 FILLER_0_18_253
*804 FILLER_0_18_265
*805 FILLER_0_18_27
*806 FILLER_0_18_277
*807 FILLER_0_18_289
*808 FILLER_0_18_29
*809 FILLER_0_18_3
*810 FILLER_0_18_301
*811 FILLER_0_18_307
*812 FILLER_0_18_309
*813 FILLER_0_18_321
*814 FILLER_0_18_333
*815 FILLER_0_18_345
*816 FILLER_0_18_61
*817 FILLER_0_18_73
*818 FILLER_0_18_81
*819 FILLER_0_19_111
*820 FILLER_0_19_135
*821 FILLER_0_19_141
*822 FILLER_0_19_15
*823 FILLER_0_19_153
*824 FILLER_0_19_165
*825 FILLER_0_19_169
*826 FILLER_0_19_177
*827 FILLER_0_19_193
*828 FILLER_0_19_214
*829 FILLER_0_19_222
*830 FILLER_0_19_225
*831 FILLER_0_19_237
*832 FILLER_0_19_249
*833 FILLER_0_19_261
*834 FILLER_0_19_27
*835 FILLER_0_19_273
*836 FILLER_0_19_279
*837 FILLER_0_19_281
*838 FILLER_0_19_293
*839 FILLER_0_19_3
*840 FILLER_0_19_305
*841 FILLER_0_19_317
*842 FILLER_0_19_329
*843 FILLER_0_19_335
*844 FILLER_0_19_337
*845 FILLER_0_19_349
*846 FILLER_0_19_35
*847 FILLER_0_19_44
*848 FILLER_0_19_57
*849 FILLER_0_19_93
*850 FILLER_0_19_99
*851 FILLER_0_1_105
*852 FILLER_0_1_111
*853 FILLER_0_1_113
*854 FILLER_0_1_125
*855 FILLER_0_1_137
*856 FILLER_0_1_149
*857 FILLER_0_1_15
*858 FILLER_0_1_161
*859 FILLER_0_1_167
*860 FILLER_0_1_169
*861 FILLER_0_1_181
*862 FILLER_0_1_193
*863 FILLER_0_1_205
*864 FILLER_0_1_217
*865 FILLER_0_1_223
*866 FILLER_0_1_225
*867 FILLER_0_1_237
*868 FILLER_0_1_249
*869 FILLER_0_1_261
*870 FILLER_0_1_27
*871 FILLER_0_1_273
*872 FILLER_0_1_279
*873 FILLER_0_1_281
*874 FILLER_0_1_293
*875 FILLER_0_1_3
*876 FILLER_0_1_305
*877 FILLER_0_1_317
*878 FILLER_0_1_329
*879 FILLER_0_1_335
*880 FILLER_0_1_337
*881 FILLER_0_1_349
*882 FILLER_0_1_39
*883 FILLER_0_1_51
*884 FILLER_0_1_55
*885 FILLER_0_1_57
*886 FILLER_0_1_69
*887 FILLER_0_1_81
*888 FILLER_0_1_93
*889 FILLER_0_20_100
*890 FILLER_0_20_121
*891 FILLER_0_20_127
*892 FILLER_0_20_131
*893 FILLER_0_20_141
*894 FILLER_0_20_15
*895 FILLER_0_20_156
*896 FILLER_0_20_168
*897 FILLER_0_20_204
*898 FILLER_0_20_216
*899 FILLER_0_20_228
*900 FILLER_0_20_243
*901 FILLER_0_20_251
*902 FILLER_0_20_27
*903 FILLER_0_20_276
*904 FILLER_0_20_280
*905 FILLER_0_20_29
*906 FILLER_0_20_3
*907 FILLER_0_20_301
*908 FILLER_0_20_307
*909 FILLER_0_20_309
*910 FILLER_0_20_321
*911 FILLER_0_20_333
*912 FILLER_0_20_345
*913 FILLER_0_20_52
*914 FILLER_0_20_64
*915 FILLER_0_20_76
*916 FILLER_0_20_85
*917 FILLER_0_21_113
*918 FILLER_0_21_118
*919 FILLER_0_21_130
*920 FILLER_0_21_138
*921 FILLER_0_21_15
*922 FILLER_0_21_162
*923 FILLER_0_21_169
*924 FILLER_0_21_177
*925 FILLER_0_21_191
*926 FILLER_0_21_203
*927 FILLER_0_21_215
*928 FILLER_0_21_223
*929 FILLER_0_21_225
*930 FILLER_0_21_233
*931 FILLER_0_21_254
*932 FILLER_0_21_27
*933 FILLER_0_21_3
*934 FILLER_0_21_304
*935 FILLER_0_21_316
*936 FILLER_0_21_322
*937 FILLER_0_21_330
*938 FILLER_0_21_337
*939 FILLER_0_21_346
*940 FILLER_0_21_35
*941 FILLER_0_21_350
*942 FILLER_0_21_69
*943 FILLER_0_21_75
*944 FILLER_0_22_111
*945 FILLER_0_22_123
*946 FILLER_0_22_135
*947 FILLER_0_22_139
*948 FILLER_0_22_141
*949 FILLER_0_22_15
*950 FILLER_0_22_152
*951 FILLER_0_22_174
*952 FILLER_0_22_186
*953 FILLER_0_22_194
*954 FILLER_0_22_197
*955 FILLER_0_22_229
*956 FILLER_0_22_243
*957 FILLER_0_22_253
*958 FILLER_0_22_265
*959 FILLER_0_22_27
*960 FILLER_0_22_277
*961 FILLER_0_22_283
*962 FILLER_0_22_29
*963 FILLER_0_22_292
*964 FILLER_0_22_3
*965 FILLER_0_22_301
*966 FILLER_0_22_307
*967 FILLER_0_22_309
*968 FILLER_0_22_33
*969 FILLER_0_22_66
*970 FILLER_0_22_78
*971 FILLER_0_22_85
*972 FILLER_0_22_97
*973 FILLER_0_23_103
*974 FILLER_0_23_110
*975 FILLER_0_23_113
*976 FILLER_0_23_125
*977 FILLER_0_23_133
*978 FILLER_0_23_15
*979 FILLER_0_23_161
*980 FILLER_0_23_167
*981 FILLER_0_23_169
*982 FILLER_0_23_195
*983 FILLER_0_23_203
*984 FILLER_0_23_245
*985 FILLER_0_23_265
*986 FILLER_0_23_27
*987 FILLER_0_23_277
*988 FILLER_0_23_3
*989 FILLER_0_23_331
*990 FILLER_0_23_335
*991 FILLER_0_23_345
*992 FILLER_0_23_55
*993 FILLER_0_23_60
*994 FILLER_0_23_72
*995 FILLER_0_23_84
*996 FILLER_0_23_92
*997 FILLER_0_24_110
*998 FILLER_0_24_131
*999 FILLER_0_24_139
*1000 FILLER_0_24_141
*1001 FILLER_0_24_15
*1002 FILLER_0_24_156
*1003 FILLER_0_24_164
*1004 FILLER_0_24_200
*1005 FILLER_0_24_219
*1006 FILLER_0_24_237
*1007 FILLER_0_24_249
*1008 FILLER_0_24_269
*1009 FILLER_0_24_27
*1010 FILLER_0_24_281
*1011 FILLER_0_24_29
*1012 FILLER_0_24_294
*1013 FILLER_0_24_3
*1014 FILLER_0_24_306
*1015 FILLER_0_24_314
*1016 FILLER_0_24_345
*1017 FILLER_0_24_41
*1018 FILLER_0_24_45
*1019 FILLER_0_24_55
*1020 FILLER_0_24_67
*1021 FILLER_0_24_79
*1022 FILLER_0_24_83
*1023 FILLER_0_24_85
*1024 FILLER_0_25_105
*1025 FILLER_0_25_113
*1026 FILLER_0_25_134
*1027 FILLER_0_25_15
*1028 FILLER_0_25_159
*1029 FILLER_0_25_167
*1030 FILLER_0_25_169
*1031 FILLER_0_25_192
*1032 FILLER_0_25_204
*1033 FILLER_0_25_216
*1034 FILLER_0_25_222
*1035 FILLER_0_25_225
*1036 FILLER_0_25_237
*1037 FILLER_0_25_27
*1038 FILLER_0_25_277
*1039 FILLER_0_25_281
*1040 FILLER_0_25_287
*1041 FILLER_0_25_3
*1042 FILLER_0_25_305
*1043 FILLER_0_25_326
*1044 FILLER_0_25_334
*1045 FILLER_0_25_345
*1046 FILLER_0_25_39
*1047 FILLER_0_25_47
*1048 FILLER_0_25_52
*1049 FILLER_0_25_57
*1050 FILLER_0_25_65
*1051 FILLER_0_25_92
*1052 FILLER_0_26_110
*1053 FILLER_0_26_141
*1054 FILLER_0_26_15
*1055 FILLER_0_26_164
*1056 FILLER_0_26_172
*1057 FILLER_0_26_195
*1058 FILLER_0_26_197
*1059 FILLER_0_26_209
*1060 FILLER_0_26_221
*1061 FILLER_0_26_239
*1062 FILLER_0_26_251
*1063 FILLER_0_26_253
*1064 FILLER_0_26_265
*1065 FILLER_0_26_27
*1066 FILLER_0_26_275
*1067 FILLER_0_26_285
*1068 FILLER_0_26_29
*1069 FILLER_0_26_297
*1070 FILLER_0_26_3
*1071 FILLER_0_26_306
*1072 FILLER_0_26_317
*1073 FILLER_0_26_348
*1074 FILLER_0_26_37
*1075 FILLER_0_26_63
*1076 FILLER_0_26_75
*1077 FILLER_0_26_83
*1078 FILLER_0_26_98
*1079 FILLER_0_27_107
*1080 FILLER_0_27_111
*1081 FILLER_0_27_113
*1082 FILLER_0_27_125
*1083 FILLER_0_27_137
*1084 FILLER_0_27_149
*1085 FILLER_0_27_15
*1086 FILLER_0_27_161
*1087 FILLER_0_27_167
*1088 FILLER_0_27_169
*1089 FILLER_0_27_179
*1090 FILLER_0_27_206
*1091 FILLER_0_27_212
*1092 FILLER_0_27_220
*1093 FILLER_0_27_253
*1094 FILLER_0_27_259
*1095 FILLER_0_27_269
*1096 FILLER_0_27_27
*1097 FILLER_0_27_298
*1098 FILLER_0_27_3
*1099 FILLER_0_27_334
*1100 FILLER_0_27_337
*1101 FILLER_0_27_349
*1102 FILLER_0_27_35
*1103 FILLER_0_27_71
*1104 FILLER_0_27_95
*1105 FILLER_0_28_115
*1106 FILLER_0_28_119
*1107 FILLER_0_28_141
*1108 FILLER_0_28_15
*1109 FILLER_0_28_153
*1110 FILLER_0_28_165
*1111 FILLER_0_28_173
*1112 FILLER_0_28_197
*1113 FILLER_0_28_209
*1114 FILLER_0_28_243
*1115 FILLER_0_28_251
*1116 FILLER_0_28_253
*1117 FILLER_0_28_265
*1118 FILLER_0_28_269
*1119 FILLER_0_28_27
*1120 FILLER_0_28_277
*1121 FILLER_0_28_289
*1122 FILLER_0_28_29
*1123 FILLER_0_28_3
*1124 FILLER_0_28_301
*1125 FILLER_0_28_307
*1126 FILLER_0_28_350
*1127 FILLER_0_28_41
*1128 FILLER_0_28_63
*1129 FILLER_0_28_75
*1130 FILLER_0_28_83
*1131 FILLER_0_29_111
*1132 FILLER_0_29_120
*1133 FILLER_0_29_15
*1134 FILLER_0_29_189
*1135 FILLER_0_29_201
*1136 FILLER_0_29_250
*1137 FILLER_0_29_258
*1138 FILLER_0_29_27
*1139 FILLER_0_29_3
*1140 FILLER_0_29_301
*1141 FILLER_0_29_330
*1142 FILLER_0_29_344
*1143 FILLER_0_29_350
*1144 FILLER_0_29_39
*1145 FILLER_0_29_47
*1146 FILLER_0_29_52
*1147 FILLER_0_29_57
*1148 FILLER_0_29_81
*1149 FILLER_0_2_109
*1150 FILLER_0_2_121
*1151 FILLER_0_2_133
*1152 FILLER_0_2_139
*1153 FILLER_0_2_141
*1154 FILLER_0_2_15
*1155 FILLER_0_2_153
*1156 FILLER_0_2_165
*1157 FILLER_0_2_177
*1158 FILLER_0_2_189
*1159 FILLER_0_2_195
*1160 FILLER_0_2_197
*1161 FILLER_0_2_209
*1162 FILLER_0_2_221
*1163 FILLER_0_2_233
*1164 FILLER_0_2_245
*1165 FILLER_0_2_251
*1166 FILLER_0_2_253
*1167 FILLER_0_2_265
*1168 FILLER_0_2_27
*1169 FILLER_0_2_277
*1170 FILLER_0_2_289
*1171 FILLER_0_2_29
*1172 FILLER_0_2_3
*1173 FILLER_0_2_301
*1174 FILLER_0_2_307
*1175 FILLER_0_2_309
*1176 FILLER_0_2_321
*1177 FILLER_0_2_333
*1178 FILLER_0_2_345
*1179 FILLER_0_2_41
*1180 FILLER_0_2_53
*1181 FILLER_0_2_65
*1182 FILLER_0_2_77
*1183 FILLER_0_2_83
*1184 FILLER_0_2_85
*1185 FILLER_0_2_97
*1186 FILLER_0_30_113
*1187 FILLER_0_30_125
*1188 FILLER_0_30_137
*1189 FILLER_0_30_141
*1190 FILLER_0_30_15
*1191 FILLER_0_30_154
*1192 FILLER_0_30_166
*1193 FILLER_0_30_174
*1194 FILLER_0_30_197
*1195 FILLER_0_30_209
*1196 FILLER_0_30_217
*1197 FILLER_0_30_222
*1198 FILLER_0_30_226
*1199 FILLER_0_30_247
*1200 FILLER_0_30_251
*1201 FILLER_0_30_253
*1202 FILLER_0_30_27
*1203 FILLER_0_30_29
*1204 FILLER_0_30_295
*1205 FILLER_0_30_3
*1206 FILLER_0_30_309
*1207 FILLER_0_30_316
*1208 FILLER_0_30_327
*1209 FILLER_0_30_348
*1210 FILLER_0_30_41
*1211 FILLER_0_30_67
*1212 FILLER_0_30_79
*1213 FILLER_0_30_83
*1214 FILLER_0_31_109
*1215 FILLER_0_31_113
*1216 FILLER_0_31_121
*1217 FILLER_0_31_127
*1218 FILLER_0_31_15
*1219 FILLER_0_31_178
*1220 FILLER_0_31_207
*1221 FILLER_0_31_219
*1222 FILLER_0_31_223
*1223 FILLER_0_31_245
*1224 FILLER_0_31_251
*1225 FILLER_0_31_27
*1226 FILLER_0_31_279
*1227 FILLER_0_31_292
*1228 FILLER_0_31_3
*1229 FILLER_0_31_335
*1230 FILLER_0_31_348
*1231 FILLER_0_31_39
*1232 FILLER_0_31_51
*1233 FILLER_0_31_55
*1234 FILLER_0_31_57
*1235 FILLER_0_31_90
*1236 FILLER_0_32_129
*1237 FILLER_0_32_137
*1238 FILLER_0_32_141
*1239 FILLER_0_32_15
*1240 FILLER_0_32_153
*1241 FILLER_0_32_165
*1242 FILLER_0_32_169
*1243 FILLER_0_32_218
*1244 FILLER_0_32_247
*1245 FILLER_0_32_27
*1246 FILLER_0_32_278
*1247 FILLER_0_32_29
*1248 FILLER_0_32_295
*1249 FILLER_0_32_3
*1250 FILLER_0_32_307
*1251 FILLER_0_32_317
*1252 FILLER_0_32_326
*1253 FILLER_0_32_348
*1254 FILLER_0_32_37
*1255 FILLER_0_32_58
*1256 FILLER_0_32_85
*1257 FILLER_0_33_110
*1258 FILLER_0_33_120
*1259 FILLER_0_33_146
*1260 FILLER_0_33_15
*1261 FILLER_0_33_158
*1262 FILLER_0_33_166
*1263 FILLER_0_33_174
*1264 FILLER_0_33_182
*1265 FILLER_0_33_207
*1266 FILLER_0_33_219
*1267 FILLER_0_33_223
*1268 FILLER_0_33_245
*1269 FILLER_0_33_257
*1270 FILLER_0_33_263
*1271 FILLER_0_33_27
*1272 FILLER_0_33_281
*1273 FILLER_0_33_298
*1274 FILLER_0_33_3
*1275 FILLER_0_33_304
*1276 FILLER_0_33_317
*1277 FILLER_0_33_332
*1278 FILLER_0_33_345
*1279 FILLER_0_33_35
*1280 FILLER_0_33_66
*1281 FILLER_0_33_74
*1282 FILLER_0_33_91
*1283 FILLER_0_33_98
*1284 FILLER_0_34_104
*1285 FILLER_0_34_116
*1286 FILLER_0_34_141
*1287 FILLER_0_34_15
*1288 FILLER_0_34_178
*1289 FILLER_0_34_185
*1290 FILLER_0_34_195
*1291 FILLER_0_34_197
*1292 FILLER_0_34_209
*1293 FILLER_0_34_213
*1294 FILLER_0_34_222
*1295 FILLER_0_34_230
*1296 FILLER_0_34_234
*1297 FILLER_0_34_248
*1298 FILLER_0_34_253
*1299 FILLER_0_34_265
*1300 FILLER_0_34_27
*1301 FILLER_0_34_273
*1302 FILLER_0_34_280
*1303 FILLER_0_34_29
*1304 FILLER_0_34_296
*1305 FILLER_0_34_3
*1306 FILLER_0_34_309
*1307 FILLER_0_34_313
*1308 FILLER_0_34_325
*1309 FILLER_0_34_346
*1310 FILLER_0_34_350
*1311 FILLER_0_34_41
*1312 FILLER_0_34_64
*1313 FILLER_0_34_74
*1314 FILLER_0_34_80
*1315 FILLER_0_35_110
*1316 FILLER_0_35_113
*1317 FILLER_0_35_125
*1318 FILLER_0_35_137
*1319 FILLER_0_35_141
*1320 FILLER_0_35_15
*1321 FILLER_0_35_166
*1322 FILLER_0_35_169
*1323 FILLER_0_35_186
*1324 FILLER_0_35_198
*1325 FILLER_0_35_225
*1326 FILLER_0_35_250
*1327 FILLER_0_35_258
*1328 FILLER_0_35_27
*1329 FILLER_0_35_3
*1330 FILLER_0_35_302
*1331 FILLER_0_35_314
*1332 FILLER_0_35_335
*1333 FILLER_0_35_343
*1334 FILLER_0_35_39
*1335 FILLER_0_35_51
*1336 FILLER_0_35_55
*1337 FILLER_0_35_57
*1338 FILLER_0_35_69
*1339 FILLER_0_35_77
*1340 FILLER_0_36_101
*1341 FILLER_0_36_122
*1342 FILLER_0_36_134
*1343 FILLER_0_36_15
*1344 FILLER_0_36_193
*1345 FILLER_0_36_197
*1346 FILLER_0_36_249
*1347 FILLER_0_36_27
*1348 FILLER_0_36_285
*1349 FILLER_0_36_29
*1350 FILLER_0_36_3
*1351 FILLER_0_36_307
*1352 FILLER_0_36_309
*1353 FILLER_0_36_321
*1354 FILLER_0_36_333
*1355 FILLER_0_36_345
*1356 FILLER_0_36_41
*1357 FILLER_0_36_53
*1358 FILLER_0_36_65
*1359 FILLER_0_36_85
*1360 FILLER_0_37_120
*1361 FILLER_0_37_132
*1362 FILLER_0_37_140
*1363 FILLER_0_37_15
*1364 FILLER_0_37_151
*1365 FILLER_0_37_167
*1366 FILLER_0_37_190
*1367 FILLER_0_37_198
*1368 FILLER_0_37_225
*1369 FILLER_0_37_231
*1370 FILLER_0_37_243
*1371 FILLER_0_37_27
*1372 FILLER_0_37_275
*1373 FILLER_0_37_279
*1374 FILLER_0_37_281
*1375 FILLER_0_37_288
*1376 FILLER_0_37_3
*1377 FILLER_0_37_302
*1378 FILLER_0_37_323
*1379 FILLER_0_37_335
*1380 FILLER_0_37_337
*1381 FILLER_0_37_349
*1382 FILLER_0_37_39
*1383 FILLER_0_37_51
*1384 FILLER_0_37_55
*1385 FILLER_0_37_57
*1386 FILLER_0_37_69
*1387 FILLER_0_37_77
*1388 FILLER_0_38_103
*1389 FILLER_0_38_111
*1390 FILLER_0_38_113
*1391 FILLER_0_38_125
*1392 FILLER_0_38_134
*1393 FILLER_0_38_14
*1394 FILLER_0_38_141
*1395 FILLER_0_38_160
*1396 FILLER_0_38_174
*1397 FILLER_0_38_18
*1398 FILLER_0_38_186
*1399 FILLER_0_38_194
*1400 FILLER_0_38_200
*1401 FILLER_0_38_212
*1402 FILLER_0_38_22
*1403 FILLER_0_38_225
*1404 FILLER_0_38_237
*1405 FILLER_0_38_249
*1406 FILLER_0_38_253
*1407 FILLER_0_38_273
*1408 FILLER_0_38_279
*1409 FILLER_0_38_281
*1410 FILLER_0_38_293
*1411 FILLER_0_38_3
*1412 FILLER_0_38_303
*1413 FILLER_0_38_307
*1414 FILLER_0_38_309
*1415 FILLER_0_38_32
*1416 FILLER_0_38_321
*1417 FILLER_0_38_333
*1418 FILLER_0_38_337
*1419 FILLER_0_38_345
*1420 FILLER_0_38_38
*1421 FILLER_0_38_42
*1422 FILLER_0_38_46
*1423 FILLER_0_38_50
*1424 FILLER_0_38_54
*1425 FILLER_0_38_57
*1426 FILLER_0_38_62
*1427 FILLER_0_38_66
*1428 FILLER_0_38_70
*1429 FILLER_0_38_85
*1430 FILLER_0_3_105
*1431 FILLER_0_3_111
*1432 FILLER_0_3_113
*1433 FILLER_0_3_125
*1434 FILLER_0_3_137
*1435 FILLER_0_3_149
*1436 FILLER_0_3_15
*1437 FILLER_0_3_161
*1438 FILLER_0_3_167
*1439 FILLER_0_3_169
*1440 FILLER_0_3_181
*1441 FILLER_0_3_193
*1442 FILLER_0_3_205
*1443 FILLER_0_3_217
*1444 FILLER_0_3_223
*1445 FILLER_0_3_225
*1446 FILLER_0_3_237
*1447 FILLER_0_3_249
*1448 FILLER_0_3_261
*1449 FILLER_0_3_27
*1450 FILLER_0_3_273
*1451 FILLER_0_3_279
*1452 FILLER_0_3_281
*1453 FILLER_0_3_293
*1454 FILLER_0_3_3
*1455 FILLER_0_3_305
*1456 FILLER_0_3_317
*1457 FILLER_0_3_329
*1458 FILLER_0_3_335
*1459 FILLER_0_3_337
*1460 FILLER_0_3_349
*1461 FILLER_0_3_39
*1462 FILLER_0_3_51
*1463 FILLER_0_3_55
*1464 FILLER_0_3_57
*1465 FILLER_0_3_69
*1466 FILLER_0_3_81
*1467 FILLER_0_3_93
*1468 FILLER_0_4_109
*1469 FILLER_0_4_121
*1470 FILLER_0_4_133
*1471 FILLER_0_4_139
*1472 FILLER_0_4_141
*1473 FILLER_0_4_15
*1474 FILLER_0_4_153
*1475 FILLER_0_4_165
*1476 FILLER_0_4_177
*1477 FILLER_0_4_189
*1478 FILLER_0_4_195
*1479 FILLER_0_4_197
*1480 FILLER_0_4_209
*1481 FILLER_0_4_221
*1482 FILLER_0_4_233
*1483 FILLER_0_4_245
*1484 FILLER_0_4_251
*1485 FILLER_0_4_253
*1486 FILLER_0_4_265
*1487 FILLER_0_4_27
*1488 FILLER_0_4_277
*1489 FILLER_0_4_289
*1490 FILLER_0_4_29
*1491 FILLER_0_4_3
*1492 FILLER_0_4_301
*1493 FILLER_0_4_307
*1494 FILLER_0_4_309
*1495 FILLER_0_4_321
*1496 FILLER_0_4_333
*1497 FILLER_0_4_345
*1498 FILLER_0_4_41
*1499 FILLER_0_4_53
*1500 FILLER_0_4_65
*1501 FILLER_0_4_77
*1502 FILLER_0_4_83
*1503 FILLER_0_4_85
*1504 FILLER_0_4_97
*1505 FILLER_0_5_105
*1506 FILLER_0_5_111
*1507 FILLER_0_5_113
*1508 FILLER_0_5_125
*1509 FILLER_0_5_137
*1510 FILLER_0_5_149
*1511 FILLER_0_5_15
*1512 FILLER_0_5_161
*1513 FILLER_0_5_167
*1514 FILLER_0_5_169
*1515 FILLER_0_5_181
*1516 FILLER_0_5_193
*1517 FILLER_0_5_205
*1518 FILLER_0_5_217
*1519 FILLER_0_5_223
*1520 FILLER_0_5_225
*1521 FILLER_0_5_237
*1522 FILLER_0_5_249
*1523 FILLER_0_5_261
*1524 FILLER_0_5_27
*1525 FILLER_0_5_273
*1526 FILLER_0_5_279
*1527 FILLER_0_5_281
*1528 FILLER_0_5_293
*1529 FILLER_0_5_3
*1530 FILLER_0_5_305
*1531 FILLER_0_5_317
*1532 FILLER_0_5_329
*1533 FILLER_0_5_335
*1534 FILLER_0_5_337
*1535 FILLER_0_5_349
*1536 FILLER_0_5_39
*1537 FILLER_0_5_51
*1538 FILLER_0_5_55
*1539 FILLER_0_5_57
*1540 FILLER_0_5_69
*1541 FILLER_0_5_81
*1542 FILLER_0_5_93
*1543 FILLER_0_6_109
*1544 FILLER_0_6_121
*1545 FILLER_0_6_133
*1546 FILLER_0_6_139
*1547 FILLER_0_6_141
*1548 FILLER_0_6_15
*1549 FILLER_0_6_153
*1550 FILLER_0_6_165
*1551 FILLER_0_6_177
*1552 FILLER_0_6_189
*1553 FILLER_0_6_195
*1554 FILLER_0_6_197
*1555 FILLER_0_6_209
*1556 FILLER_0_6_221
*1557 FILLER_0_6_233
*1558 FILLER_0_6_245
*1559 FILLER_0_6_251
*1560 FILLER_0_6_253
*1561 FILLER_0_6_265
*1562 FILLER_0_6_27
*1563 FILLER_0_6_277
*1564 FILLER_0_6_289
*1565 FILLER_0_6_29
*1566 FILLER_0_6_3
*1567 FILLER_0_6_301
*1568 FILLER_0_6_307
*1569 FILLER_0_6_309
*1570 FILLER_0_6_321