*SPEF "ieee 1481-1999"
*DESIGN "tt_um_losaias"
*DATE "11:11:11 Fri 11 11, 1111"
*VENDOR "OpenRCX"
*PROGRAM "Parallel Extraction"
*VERSION "1.0"
*DESIGN_FLOW "NAME_SCOPE LOCAL" "PIN_CAP NONE"
*DIVIDER /
*DELIMITER :
*BUS_DELIMITER []
*T_UNIT 1 NS
*C_UNIT 1 PF
*R_UNIT 1 OHM
*L_UNIT 1 HENRY

*NAME_MAP
*3 clk
*4 ena
*5 rst_n
*6 ui_in[0]
*7 ui_in[1]
*8 ui_in[2]
*9 ui_in[3]
*10 ui_in[4]
*11 ui_in[5]
*12 ui_in[6]
*13 ui_in[7]
*14 uio_in[0]
*15 uio_in[1]
*16 uio_in[2]
*17 uio_in[3]
*18 uio_in[4]
*19 uio_in[5]
*20 uio_in[6]
*21 uio_in[7]
*22 net14
*23 net15
*24 net16
*25 net17
*26 net24
*27 net25
*28 net18
*29 net26
*30 net19
*31 net20
*32 net21
*33 net22
*34 uio_out[4]
*35 uio_out[5]
*36 net23
*37 uio_out[7]
*38 uo_out[0]
*39 uo_out[1]
*40 uo_out[2]
*41 uo_out[3]
*42 uo_out[4]
*43 uo_out[5]
*44 uo_out[6]
*45 uo_out[7]
*46 ALU\.A\[0\]
*47 ALU\.A\[1\]
*48 ALU\.A\[2\]
*49 ALU\.A\[3\]
*50 ALU\.B\[0\]
*51 ALU\.B\[1\]
*52 ALU\.B\[2\]
*53 ALU\.B\[3\]
*54 ALU\.ZeroFlag
*55 REG\.DI\[0\]
*56 REG\.DI\[1\]
*57 REG\.DI\[2\]
*58 REG\.DI\[3\]
*59 REG\.x0\[0\]
*60 REG\.x0\[1\]
*61 REG\.x0\[2\]
*62 REG\.x0\[3\]
*63 REG\.x1\[0\]
*64 REG\.x1\[1\]
*65 REG\.x1\[2\]
*66 REG\.x1\[3\]
*67 REG\.x2\[0\]
*68 REG\.x2\[1\]
*69 REG\.x2\[2\]
*70 REG\.x2\[3\]
*71 REG\.x3\[0\]
*72 REG\.x3\[1\]
*73 REG\.x3\[2\]
*74 REG\.x3\[3\]
*75 _000_
*76 _001_
*77 _002_
*78 _003_
*79 _004_
*80 _005_
*81 _006_
*82 _007_
*83 _008_
*84 _009_
*85 _010_
*86 _011_
*87 _012_
*88 _013_
*89 _014_
*90 _015_
*91 _016_
*92 _017_
*93 _018_
*94 _019_
*95 _020_
*96 _021_
*97 _022_
*98 _023_
*99 _024_
*100 _025_
*101 _026_
*102 _027_
*103 _028_
*104 _029_
*105 _030_
*106 _031_
*107 _032_
*108 _033_
*109 _034_
*110 _035_
*111 _036_
*112 _037_
*113 _038_
*114 _039_
*115 _040_
*116 _041_
*117 _042_
*118 _043_
*119 _044_
*120 _045_
*121 _046_
*122 _047_
*123 _048_
*124 _049_
*125 _050_
*126 _051_
*127 _052_
*128 _053_
*129 _054_
*130 _055_
*131 _056_
*132 _057_
*133 _058_
*134 _059_
*135 _060_
*136 _061_
*137 _062_
*138 _063_
*139 _064_
*140 _065_
*141 _066_
*142 _067_
*143 _068_
*144 _069_
*145 _070_
*146 _071_
*147 _072_
*148 _073_
*149 _074_
*150 _075_
*151 _076_
*152 _077_
*153 _078_
*154 _079_
*155 _080_
*156 _081_
*157 _082_
*158 _083_
*159 _084_
*160 _085_
*161 _086_
*162 _087_
*163 _088_
*164 _089_
*165 _090_
*166 _091_
*167 _092_
*168 _093_
*169 _094_
*170 _095_
*171 _096_
*172 _097_
*173 _098_
*174 _099_
*175 _100_
*176 _101_
*177 _102_
*178 _103_
*179 _104_
*180 _105_
*181 _106_
*182 _107_
*183 _108_
*184 _109_
*185 _110_
*186 _111_
*187 _112_
*188 _113_
*189 _114_
*190 _115_
*191 _116_
*192 _117_
*193 _118_
*194 _119_
*195 _120_
*196 _121_
*197 _122_
*198 _123_
*199 _124_
*200 _125_
*201 _126_
*202 _127_
*203 _128_
*204 _129_
*205 _130_
*206 _131_
*207 _132_
*208 _133_
*209 _134_
*210 _135_
*211 _136_
*212 _137_
*213 _138_
*214 _139_
*215 _140_
*216 _141_
*217 _142_
*218 _143_
*219 _144_
*220 _145_
*221 _146_
*222 _147_
*223 _148_
*224 _149_
*225 _150_
*226 _151_
*227 _152_
*228 _153_
*229 _154_
*230 _155_
*231 _156_
*232 _157_
*233 _158_
*234 _159_
*235 _160_
*236 _161_
*237 _162_
*238 _163_
*239 _164_
*240 _165_
*241 _166_
*242 _167_
*243 _168_
*244 _169_
*245 _170_
*246 _171_
*247 _172_
*248 _173_
*249 _174_
*250 _175_
*251 _176_
*252 _177_
*253 clknet_0_clk
*254 clknet_2_0__leaf_clk
*255 clknet_2_1__leaf_clk
*256 clknet_2_2__leaf_clk
*257 clknet_2_3__leaf_clk
*258 net1
*259 net10
*260 net11
*261 net12
*262 net13
*263 net2
*264 net27
*265 net28
*266 net29
*267 net3
*268 net30
*269 net31
*270 net32
*271 net33
*272 net34
*273 net35
*274 net36
*275 net37
*276 net38
*277 net39
*278 net4
*279 net40
*280 net41
*281 net42
*282 net43
*283 net44
*284 net45
*285 net46
*286 net47
*287 net48
*288 net49
*289 net5
*290 net50
*291 net51
*292 net6
*293 net7
*294 net8
*295 net9
*296 FILLER_0_0_109
*297 FILLER_0_0_113
*298 FILLER_0_0_125
*299 FILLER_0_0_137
*300 FILLER_0_0_141
*301 FILLER_0_0_15
*302 FILLER_0_0_153
*303 FILLER_0_0_165
*304 FILLER_0_0_169
*305 FILLER_0_0_181
*306 FILLER_0_0_193
*307 FILLER_0_0_197
*308 FILLER_0_0_209
*309 FILLER_0_0_221
*310 FILLER_0_0_225
*311 FILLER_0_0_237
*312 FILLER_0_0_249
*313 FILLER_0_0_253
*314 FILLER_0_0_265
*315 FILLER_0_0_27
*316 FILLER_0_0_277
*317 FILLER_0_0_281
*318 FILLER_0_0_29
*319 FILLER_0_0_293
*320 FILLER_0_0_3
*321 FILLER_0_0_305
*322 FILLER_0_0_309
*323 FILLER_0_0_321
*324 FILLER_0_0_333
*325 FILLER_0_0_337
*326 FILLER_0_0_349
*327 FILLER_0_0_41
*328 FILLER_0_0_53
*329 FILLER_0_0_57
*330 FILLER_0_0_69
*331 FILLER_0_0_81
*332 FILLER_0_0_85
*333 FILLER_0_0_97
*334 FILLER_0_10_109
*335 FILLER_0_10_121
*336 FILLER_0_10_133
*337 FILLER_0_10_139
*338 FILLER_0_10_141
*339 FILLER_0_10_15
*340 FILLER_0_10_153
*341 FILLER_0_10_165
*342 FILLER_0_10_177
*343 FILLER_0_10_189
*344 FILLER_0_10_195
*345 FILLER_0_10_197
*346 FILLER_0_10_209
*347 FILLER_0_10_221
*348 FILLER_0_10_233
*349 FILLER_0_10_245
*350 FILLER_0_10_251
*351 FILLER_0_10_253
*352 FILLER_0_10_265
*353 FILLER_0_10_27
*354 FILLER_0_10_277
*355 FILLER_0_10_289
*356 FILLER_0_10_29
*357 FILLER_0_10_3
*358 FILLER_0_10_301
*359 FILLER_0_10_307
*360 FILLER_0_10_309
*361 FILLER_0_10_321
*362 FILLER_0_10_333
*363 FILLER_0_10_345
*364 FILLER_0_10_41
*365 FILLER_0_10_53
*366 FILLER_0_10_65
*367 FILLER_0_10_77
*368 FILLER_0_10_83
*369 FILLER_0_10_85
*370 FILLER_0_10_97
*371 FILLER_0_11_105
*372 FILLER_0_11_111
*373 FILLER_0_11_113
*374 FILLER_0_11_125
*375 FILLER_0_11_137
*376 FILLER_0_11_149
*377 FILLER_0_11_15
*378 FILLER_0_11_161
*379 FILLER_0_11_167
*380 FILLER_0_11_169
*381 FILLER_0_11_181
*382 FILLER_0_11_193
*383 FILLER_0_11_205
*384 FILLER_0_11_217
*385 FILLER_0_11_223
*386 FILLER_0_11_225
*387 FILLER_0_11_237
*388 FILLER_0_11_249
*389 FILLER_0_11_261
*390 FILLER_0_11_27
*391 FILLER_0_11_273
*392 FILLER_0_11_279
*393 FILLER_0_11_281
*394 FILLER_0_11_293
*395 FILLER_0_11_3
*396 FILLER_0_11_305
*397 FILLER_0_11_317
*398 FILLER_0_11_329
*399 FILLER_0_11_335
*400 FILLER_0_11_337
*401 FILLER_0_11_349
*402 FILLER_0_11_39
*403 FILLER_0_11_51
*404 FILLER_0_11_55
*405 FILLER_0_11_57
*406 FILLER_0_11_69
*407 FILLER_0_11_81
*408 FILLER_0_11_93
*409 FILLER_0_12_109
*410 FILLER_0_12_121
*411 FILLER_0_12_133
*412 FILLER_0_12_139
*413 FILLER_0_12_141
*414 FILLER_0_12_15
*415 FILLER_0_12_153
*416 FILLER_0_12_165
*417 FILLER_0_12_177
*418 FILLER_0_12_189
*419 FILLER_0_12_195
*420 FILLER_0_12_197
*421 FILLER_0_12_209
*422 FILLER_0_12_221
*423 FILLER_0_12_233
*424 FILLER_0_12_245
*425 FILLER_0_12_251
*426 FILLER_0_12_253
*427 FILLER_0_12_265
*428 FILLER_0_12_27
*429 FILLER_0_12_277
*430 FILLER_0_12_289
*431 FILLER_0_12_29
*432 FILLER_0_12_3
*433 FILLER_0_12_301
*434 FILLER_0_12_307
*435 FILLER_0_12_309
*436 FILLER_0_12_321
*437 FILLER_0_12_333
*438 FILLER_0_12_345
*439 FILLER_0_12_41
*440 FILLER_0_12_53
*441 FILLER_0_12_65
*442 FILLER_0_12_77
*443 FILLER_0_12_83
*444 FILLER_0_12_85
*445 FILLER_0_12_97
*446 FILLER_0_13_105
*447 FILLER_0_13_111
*448 FILLER_0_13_113
*449 FILLER_0_13_125
*450 FILLER_0_13_137
*451 FILLER_0_13_149
*452 FILLER_0_13_15
*453 FILLER_0_13_161
*454 FILLER_0_13_167
*455 FILLER_0_13_169
*456 FILLER_0_13_181
*457 FILLER_0_13_193
*458 FILLER_0_13_205
*459 FILLER_0_13_217
*460 FILLER_0_13_223
*461 FILLER_0_13_225
*462 FILLER_0_13_237
*463 FILLER_0_13_249
*464 FILLER_0_13_261
*465 FILLER_0_13_27
*466 FILLER_0_13_273
*467 FILLER_0_13_279
*468 FILLER_0_13_281
*469 FILLER_0_13_293
*470 FILLER_0_13_3
*471 FILLER_0_13_305
*472 FILLER_0_13_317
*473 FILLER_0_13_329
*474 FILLER_0_13_335
*475 FILLER_0_13_337
*476 FILLER_0_13_349
*477 FILLER_0_13_39
*478 FILLER_0_13_51
*479 FILLER_0_13_55
*480 FILLER_0_13_57
*481 FILLER_0_13_69
*482 FILLER_0_13_81
*483 FILLER_0_13_93
*484 FILLER_0_14_109
*485 FILLER_0_14_121
*486 FILLER_0_14_133
*487 FILLER_0_14_139
*488 FILLER_0_14_141
*489 FILLER_0_14_15
*490 FILLER_0_14_153
*491 FILLER_0_14_165
*492 FILLER_0_14_177
*493 FILLER_0_14_189
*494 FILLER_0_14_195
*495 FILLER_0_14_197
*496 FILLER_0_14_209
*497 FILLER_0_14_221
*498 FILLER_0_14_233
*499 FILLER_0_14_245
*500 FILLER_0_14_251
*501 FILLER_0_14_253
*502 FILLER_0_14_265
*503 FILLER_0_14_27
*504 FILLER_0_14_277
*505 FILLER_0_14_289
*506 FILLER_0_14_29
*507 FILLER_0_14_3
*508 FILLER_0_14_301
*509 FILLER_0_14_307
*510 FILLER_0_14_309
*511 FILLER_0_14_321
*512 FILLER_0_14_333
*513 FILLER_0_14_345
*514 FILLER_0_14_41
*515 FILLER_0_14_53
*516 FILLER_0_14_65
*517 FILLER_0_14_77
*518 FILLER_0_14_83
*519 FILLER_0_14_85
*520 FILLER_0_14_97
*521 FILLER_0_15_105
*522 FILLER_0_15_111
*523 FILLER_0_15_113
*524 FILLER_0_15_125
*525 FILLER_0_15_137
*526 FILLER_0_15_149
*527 FILLER_0_15_15
*528 FILLER_0_15_161
*529 FILLER_0_15_167
*530 FILLER_0_15_169
*531 FILLER_0_15_181
*532 FILLER_0_15_193
*533 FILLER_0_15_205
*534 FILLER_0_15_217
*535 FILLER_0_15_223
*536 FILLER_0_15_225
*537 FILLER_0_15_237
*538 FILLER_0_15_249
*539 FILLER_0_15_261
*540 FILLER_0_15_27
*541 FILLER_0_15_273
*542 FILLER_0_15_279
*543 FILLER_0_15_281
*544 FILLER_0_15_293
*545 FILLER_0_15_3
*546 FILLER_0_15_305
*547 FILLER_0_15_317
*548 FILLER_0_15_329
*549 FILLER_0_15_335
*550 FILLER_0_15_337
*551 FILLER_0_15_349
*552 FILLER_0_15_39
*553 FILLER_0_15_51
*554 FILLER_0_15_55
*555 FILLER_0_15_57
*556 FILLER_0_15_69
*557 FILLER_0_15_81
*558 FILLER_0_15_93
*559 FILLER_0_16_109
*560 FILLER_0_16_121
*561 FILLER_0_16_133
*562 FILLER_0_16_139
*563 FILLER_0_16_141
*564 FILLER_0_16_15
*565 FILLER_0_16_153
*566 FILLER_0_16_165
*567 FILLER_0_16_177
*568 FILLER_0_16_189
*569 FILLER_0_16_195
*570 FILLER_0_16_197
*571 FILLER_0_16_209
*572 FILLER_0_16_221
*573 FILLER_0_16_233
*574 FILLER_0_16_245
*575 FILLER_0_16_251
*576 FILLER_0_16_253
*577 FILLER_0_16_265
*578 FILLER_0_16_27
*579 FILLER_0_16_277
*580 FILLER_0_16_289
*581 FILLER_0_16_29
*582 FILLER_0_16_3
*583 FILLER_0_16_301
*584 FILLER_0_16_307
*585 FILLER_0_16_309
*586 FILLER_0_16_321
*587 FILLER_0_16_333
*588 FILLER_0_16_345
*589 FILLER_0_16_41
*590 FILLER_0_16_53
*591 FILLER_0_16_65
*592 FILLER_0_16_77
*593 FILLER_0_16_83
*594 FILLER_0_16_85
*595 FILLER_0_16_97
*596 FILLER_0_17_105
*597 FILLER_0_17_111
*598 FILLER_0_17_113
*599 FILLER_0_17_125
*600 FILLER_0_17_137
*601 FILLER_0_17_149
*602 FILLER_0_17_15
*603 FILLER_0_17_161
*604 FILLER_0_17_167
*605 FILLER_0_17_169
*606 FILLER_0_17_181
*607 FILLER_0_17_193
*608 FILLER_0_17_205
*609 FILLER_0_17_217
*610 FILLER_0_17_223
*611 FILLER_0_17_225
*612 FILLER_0_17_237
*613 FILLER_0_17_249
*614 FILLER_0_17_261
*615 FILLER_0_17_27
*616 FILLER_0_17_273
*617 FILLER_0_17_279
*618 FILLER_0_17_281
*619 FILLER_0_17_293
*620 FILLER_0_17_3
*621 FILLER_0_17_305
*622 FILLER_0_17_317
*623 FILLER_0_17_329
*624 FILLER_0_17_335
*625 FILLER_0_17_337
*626 FILLER_0_17_349
*627 FILLER_0_17_39
*628 FILLER_0_17_51
*629 FILLER_0_17_55
*630 FILLER_0_17_57
*631 FILLER_0_17_69
*632 FILLER_0_17_81
*633 FILLER_0_17_93
*634 FILLER_0_18_109
*635 FILLER_0_18_121
*636 FILLER_0_18_133
*637 FILLER_0_18_139
*638 FILLER_0_18_141
*639 FILLER_0_18_15
*640 FILLER_0_18_153
*641 FILLER_0_18_165
*642 FILLER_0_18_177
*643 FILLER_0_18_189
*644 FILLER_0_18_195
*645 FILLER_0_18_197
*646 FILLER_0_18_209
*647 FILLER_0_18_221
*648 FILLER_0_18_233
*649 FILLER_0_18_245
*650 FILLER_0_18_251
*651 FILLER_0_18_253
*652 FILLER_0_18_265
*653 FILLER_0_18_27
*654 FILLER_0_18_277
*655 FILLER_0_18_289
*656 FILLER_0_18_29
*657 FILLER_0_18_3
*658 FILLER_0_18_301
*659 FILLER_0_18_307
*660 FILLER_0_18_309
*661 FILLER_0_18_321
*662 FILLER_0_18_333
*663 FILLER_0_18_345
*664 FILLER_0_18_41
*665 FILLER_0_18_53
*666 FILLER_0_18_65
*667 FILLER_0_18_77
*668 FILLER_0_18_83
*669 FILLER_0_18_85
*670 FILLER_0_18_97
*671 FILLER_0_19_105
*672 FILLER_0_19_111
*673 FILLER_0_19_113
*674 FILLER_0_19_125
*675 FILLER_0_19_137
*676 FILLER_0_19_149
*677 FILLER_0_19_15
*678 FILLER_0_19_161
*679 FILLER_0_19_167
*680 FILLER_0_19_169
*681 FILLER_0_19_181
*682 FILLER_0_19_193
*683 FILLER_0_19_205
*684 FILLER_0_19_217
*685 FILLER_0_19_223
*686 FILLER_0_19_225
*687 FILLER_0_19_237
*688 FILLER_0_19_249
*689 FILLER_0_19_261
*690 FILLER_0_19_27
*691 FILLER_0_19_273
*692 FILLER_0_19_279
*693 FILLER_0_19_281
*694 FILLER_0_19_293
*695 FILLER_0_19_3
*696 FILLER_0_19_305
*697 FILLER_0_19_317
*698 FILLER_0_19_329
*699 FILLER_0_19_335
*700 FILLER_0_19_337
*701 FILLER_0_19_349
*702 FILLER_0_19_39
*703 FILLER_0_19_51
*704 FILLER_0_19_55
*705 FILLER_0_19_57
*706 FILLER_0_19_69
*707 FILLER_0_19_81
*708 FILLER_0_19_93
*709 FILLER_0_1_105
*710 FILLER_0_1_111
*711 FILLER_0_1_113
*712 FILLER_0_1_125
*713 FILLER_0_1_137
*714 FILLER_0_1_149
*715 FILLER_0_1_15
*716 FILLER_0_1_161
*717 FILLER_0_1_167
*718 FILLER_0_1_169
*719 FILLER_0_1_181
*720 FILLER_0_1_193
*721 FILLER_0_1_205
*722 FILLER_0_1_217
*723 FILLER_0_1_223
*724 FILLER_0_1_225
*725 FILLER_0_1_237
*726 FILLER_0_1_249
*727 FILLER_0_1_261
*728 FILLER_0_1_27
*729 FILLER_0_1_273
*730 FILLER_0_1_279
*731 FILLER_0_1_281
*732 FILLER_0_1_293
*733 FILLER_0_1_3
*734 FILLER_0_1_305
*735 FILLER_0_1_317
*736 FILLER_0_1_329
*737 FILLER_0_1_335
*738 FILLER_0_1_337
*739 FILLER_0_1_349
*740 FILLER_0_1_39
*741 FILLER_0_1_51
*742 FILLER_0_1_55
*743 FILLER_0_1_57
*744 FILLER_0_1_69
*745 FILLER_0_1_81
*746 FILLER_0_1_93
*747 FILLER_0_20_109
*748 FILLER_0_20_121
*749 FILLER_0_20_133
*750 FILLER_0_20_139
*751 FILLER_0_20_141
*752 FILLER_0_20_15
*753 FILLER_0_20_153
*754 FILLER_0_20_165
*755 FILLER_0_20_177
*756 FILLER_0_20_189
*757 FILLER_0_20_195
*758 FILLER_0_20_197
*759 FILLER_0_20_209
*760 FILLER_0_20_221
*761 FILLER_0_20_233
*762 FILLER_0_20_245
*763 FILLER_0_20_251
*764 FILLER_0_20_253
*765 FILLER_0_20_265
*766 FILLER_0_20_27
*767 FILLER_0_20_277
*768 FILLER_0_20_289
*769 FILLER_0_20_29
*770 FILLER_0_20_3
*771 FILLER_0_20_301
*772 FILLER_0_20_307
*773 FILLER_0_20_309
*774 FILLER_0_20_321
*775 FILLER_0_20_333
*776 FILLER_0_20_345
*777 FILLER_0_20_41
*778 FILLER_0_20_53
*779 FILLER_0_20_65
*780 FILLER_0_20_77
*781 FILLER_0_20_83
*782 FILLER_0_20_85
*783 FILLER_0_20_97
*784 FILLER_0_21_105
*785 FILLER_0_21_111
*786 FILLER_0_21_113
*787 FILLER_0_21_125
*788 FILLER_0_21_137
*789 FILLER_0_21_149
*790 FILLER_0_21_15
*791 FILLER_0_21_161
*792 FILLER_0_21_167
*793 FILLER_0_21_169
*794 FILLER_0_21_181
*795 FILLER_0_21_193
*796 FILLER_0_21_205
*797 FILLER_0_21_217
*798 FILLER_0_21_223
*799 FILLER_0_21_225
*800 FILLER_0_21_237
*801 FILLER_0_21_249
*802 FILLER_0_21_261
*803 FILLER_0_21_27
*804 FILLER_0_21_273
*805 FILLER_0_21_279
*806 FILLER_0_21_281
*807 FILLER_0_21_293
*808 FILLER_0_21_3
*809 FILLER_0_21_305
*810 FILLER_0_21_317
*811 FILLER_0_21_329
*812 FILLER_0_21_335
*813 FILLER_0_21_337
*814 FILLER_0_21_349
*815 FILLER_0_21_39
*816 FILLER_0_21_51
*817 FILLER_0_21_55
*818 FILLER_0_21_57
*819 FILLER_0_21_69
*820 FILLER_0_21_81
*821 FILLER_0_21_93
*822 FILLER_0_22_109
*823 FILLER_0_22_121
*824 FILLER_0_22_133
*825 FILLER_0_22_139
*826 FILLER_0_22_141
*827 FILLER_0_22_15
*828 FILLER_0_22_153
*829 FILLER_0_22_165
*830 FILLER_0_22_177
*831 FILLER_0_22_189
*832 FILLER_0_22_195
*833 FILLER_0_22_197
*834 FILLER_0_22_209
*835 FILLER_0_22_221
*836 FILLER_0_22_233
*837 FILLER_0_22_245
*838 FILLER_0_22_251
*839 FILLER_0_22_253
*840 FILLER_0_22_265
*841 FILLER_0_22_27
*842 FILLER_0_22_277
*843 FILLER_0_22_289
*844 FILLER_0_22_29
*845 FILLER_0_22_3
*846 FILLER_0_22_301
*847 FILLER_0_22_307
*848 FILLER_0_22_309
*849 FILLER_0_22_321
*850 FILLER_0_22_333
*851 FILLER_0_22_345
*852 FILLER_0_22_41
*853 FILLER_0_22_53
*854 FILLER_0_22_65
*855 FILLER_0_22_77
*856 FILLER_0_22_83
*857 FILLER_0_22_85
*858 FILLER_0_22_97
*859 FILLER_0_23_105
*860 FILLER_0_23_111
*861 FILLER_0_23_113
*862 FILLER_0_23_125
*863 FILLER_0_23_137
*864 FILLER_0_23_149
*865 FILLER_0_23_15
*866 FILLER_0_23_161
*867 FILLER_0_23_167
*868 FILLER_0_23_169
*869 FILLER_0_23_181
*870 FILLER_0_23_193
*871 FILLER_0_23_205
*872 FILLER_0_23_217
*873 FILLER_0_23_223
*874 FILLER_0_23_225
*875 FILLER_0_23_237
*876 FILLER_0_23_249
*877 FILLER_0_23_261
*878 FILLER_0_23_27
*879 FILLER_0_23_273
*880 FILLER_0_23_279
*881 FILLER_0_23_281
*882 FILLER_0_23_293
*883 FILLER_0_23_3
*884 FILLER_0_23_325
*885 FILLER_0_23_333
*886 FILLER_0_23_337
*887 FILLER_0_23_349
*888 FILLER_0_23_39
*889 FILLER_0_23_51
*890 FILLER_0_23_55
*891 FILLER_0_23_57
*892 FILLER_0_23_69
*893 FILLER_0_23_81
*894 FILLER_0_23_93
*895 FILLER_0_24_109
*896 FILLER_0_24_121
*897 FILLER_0_24_133
*898 FILLER_0_24_139
*899 FILLER_0_24_141
*900 FILLER_0_24_15
*901 FILLER_0_24_153
*902 FILLER_0_24_165
*903 FILLER_0_24_177
*904 FILLER_0_24_189
*905 FILLER_0_24_195
*906 FILLER_0_24_197
*907 FILLER_0_24_209
*908 FILLER_0_24_221
*909 FILLER_0_24_233
*910 FILLER_0_24_245
*911 FILLER_0_24_251
*912 FILLER_0_24_253
*913 FILLER_0_24_265
*914 FILLER_0_24_27
*915 FILLER_0_24_273
*916 FILLER_0_24_279
*917 FILLER_0_24_29
*918 FILLER_0_24_291
*919 FILLER_0_24_299
*920 FILLER_0_24_3
*921 FILLER_0_24_305
*922 FILLER_0_24_325
*923 FILLER_0_24_329
*924 FILLER_0_24_346
*925 FILLER_0_24_350
*926 FILLER_0_24_41
*927 FILLER_0_24_53
*928 FILLER_0_24_65
*929 FILLER_0_24_77
*930 FILLER_0_24_83
*931 FILLER_0_24_85
*932 FILLER_0_24_97
*933 FILLER_0_25_105
*934 FILLER_0_25_111
*935 FILLER_0_25_113
*936 FILLER_0_25_125
*937 FILLER_0_25_137
*938 FILLER_0_25_149
*939 FILLER_0_25_15
*940 FILLER_0_25_161
*941 FILLER_0_25_167
*942 FILLER_0_25_169
*943 FILLER_0_25_181
*944 FILLER_0_25_193
*945 FILLER_0_25_201
*946 FILLER_0_25_207
*947 FILLER_0_25_219
*948 FILLER_0_25_223
*949 FILLER_0_25_225
*950 FILLER_0_25_237
*951 FILLER_0_25_249
*952 FILLER_0_25_253
*953 FILLER_0_25_27
*954 FILLER_0_25_270
*955 FILLER_0_25_3
*956 FILLER_0_25_329
*957 FILLER_0_25_345
*958 FILLER_0_25_39
*959 FILLER_0_25_51
*960 FILLER_0_25_55
*961 FILLER_0_25_57
*962 FILLER_0_25_69
*963 FILLER_0_25_81
*964 FILLER_0_25_93
*965 FILLER_0_26_109
*966 FILLER_0_26_121
*967 FILLER_0_26_133
*968 FILLER_0_26_139
*969 FILLER_0_26_141
*970 FILLER_0_26_15
*971 FILLER_0_26_153
*972 FILLER_0_26_165
*973 FILLER_0_26_177
*974 FILLER_0_26_189
*975 FILLER_0_26_195
*976 FILLER_0_26_229
*977 FILLER_0_26_237
*978 FILLER_0_26_249
*979 FILLER_0_26_27
*980 FILLER_0_26_29
*981 FILLER_0_26_3
*982 FILLER_0_26_306
*983 FILLER_0_26_312
*984 FILLER_0_26_41
*985 FILLER_0_26_53
*986 FILLER_0_26_65
*987 FILLER_0_26_77
*988 FILLER_0_26_83
*989 FILLER_0_26_85
*990 FILLER_0_26_97
*991 FILLER_0_27_105
*992 FILLER_0_27_111
*993 FILLER_0_27_113
*994 FILLER_0_27_125
*995 FILLER_0_27_137
*996 FILLER_0_27_149
*997 FILLER_0_27_15
*998 FILLER_0_27_161
*999 FILLER_0_27_167
*1000 FILLER_0_27_169
*1001 FILLER_0_27_181
*1002 FILLER_0_27_208
*1003 FILLER_0_27_223
*1004 FILLER_0_27_228
*1005 FILLER_0_27_250
*1006 FILLER_0_27_259
*1007 FILLER_0_27_264
*1008 FILLER_0_27_27
*1009 FILLER_0_27_274
*1010 FILLER_0_27_3
*1011 FILLER_0_27_302
*1012 FILLER_0_27_335
*1013 FILLER_0_27_346
*1014 FILLER_0_27_350
*1015 FILLER_0_27_39
*1016 FILLER_0_27_51
*1017 FILLER_0_27_55
*1018 FILLER_0_27_57
*1019 FILLER_0_27_69
*1020 FILLER_0_27_81
*1021 FILLER_0_27_93
*1022 FILLER_0_28_109
*1023 FILLER_0_28_121
*1024 FILLER_0_28_133
*1025 FILLER_0_28_139
*1026 FILLER_0_28_141
*1027 FILLER_0_28_15
*1028 FILLER_0_28_153
*1029 FILLER_0_28_157
*1030 FILLER_0_28_161
*1031 FILLER_0_28_173
*1032 FILLER_0_28_181
*1033 FILLER_0_28_253
*1034 FILLER_0_28_27
*1035 FILLER_0_28_278
*1036 FILLER_0_28_29
*1037 FILLER_0_28_3
*1038 FILLER_0_28_305
*1039 FILLER_0_28_309
*1040 FILLER_0_28_327
*1041 FILLER_0_28_337
*1042 FILLER_0_28_41
*1043 FILLER_0_28_53
*1044 FILLER_0_28_65
*1045 FILLER_0_28_77
*1046 FILLER_0_28_83
*1047 FILLER_0_28_85
*1048 FILLER_0_28_97
*1049 FILLER_0_29_105
*1050 FILLER_0_29_111
*1051 FILLER_0_29_113
*1052 FILLER_0_29_125
*1053 FILLER_0_29_15
*1054 FILLER_0_29_151
*1055 FILLER_0_29_163
*1056 FILLER_0_29_167
*1057 FILLER_0_29_179
*1058 FILLER_0_29_206
*1059 FILLER_0_29_212
*1060 FILLER_0_29_217
*1061 FILLER_0_29_223
*1062 FILLER_0_29_258
*1063 FILLER_0_29_27
*1064 FILLER_0_29_277
*1065 FILLER_0_29_297
*1066 FILLER_0_29_3
*1067 FILLER_0_29_322
*1068 FILLER_0_29_346
*1069 FILLER_0_29_350
*1070 FILLER_0_29_39
*1071 FILLER_0_29_51
*1072 FILLER_0_29_55
*1073 FILLER_0_29_57
*1074 FILLER_0_29_69
*1075 FILLER_0_29_81
*1076 FILLER_0_29_93
*1077 FILLER_0_2_109
*1078 FILLER_0_2_121
*1079 FILLER_0_2_133
*1080 FILLER_0_2_139
*1081 FILLER_0_2_141
*1082 FILLER_0_2_15
*1083 FILLER_0_2_153
*1084 FILLER_0_2_165
*1085 FILLER_0_2_177
*1086 FILLER_0_2_189
*1087 FILLER_0_2_195
*1088 FILLER_0_2_197
*1089 FILLER_0_2_209
*1090 FILLER_0_2_221
*1091 FILLER_0_2_233
*1092 FILLER_0_2_245
*1093 FILLER_0_2_251
*1094 FILLER_0_2_253
*1095 FILLER_0_2_265
*1096 FILLER_0_2_27
*1097 FILLER_0_2_277
*1098 FILLER_0_2_289
*1099 FILLER_0_2_29
*1100 FILLER_0_2_3
*1101 FILLER_0_2_301
*1102 FILLER_0_2_307
*1103 FILLER_0_2_309
*1104 FILLER_0_2_321
*1105 FILLER_0_2_333
*1106 FILLER_0_2_345
*1107 FILLER_0_2_41
*1108 FILLER_0_2_53
*1109 FILLER_0_2_65
*1110 FILLER_0_2_77
*1111 FILLER_0_2_83
*1112 FILLER_0_2_85
*1113 FILLER_0_2_97
*1114 FILLER_0_30_109
*1115 FILLER_0_30_121
*1116 FILLER_0_30_139
*1117 FILLER_0_30_15
*1118 FILLER_0_30_153
*1119 FILLER_0_30_175
*1120 FILLER_0_30_183
*1121 FILLER_0_30_202
*1122 FILLER_0_30_210
*1123 FILLER_0_30_216
*1124 FILLER_0_30_228
*1125 FILLER_0_30_232
*1126 FILLER_0_30_245
*1127 FILLER_0_30_249
*1128 FILLER_0_30_262
*1129 FILLER_0_30_27
*1130 FILLER_0_30_271
*1131 FILLER_0_30_29
*1132 FILLER_0_30_3
*1133 FILLER_0_30_304
*1134 FILLER_0_30_349
*1135 FILLER_0_30_41
*1136 FILLER_0_30_53
*1137 FILLER_0_30_65
*1138 FILLER_0_30_77
*1139 FILLER_0_30_83
*1140 FILLER_0_30_85
*1141 FILLER_0_30_97
*1142 FILLER_0_31_105
*1143 FILLER_0_31_111
*1144 FILLER_0_31_113
*1145 FILLER_0_31_130
*1146 FILLER_0_31_142
*1147 FILLER_0_31_15
*1148 FILLER_0_31_150
*1149 FILLER_0_31_160
*1150 FILLER_0_31_172
*1151 FILLER_0_31_180
*1152 FILLER_0_31_197
*1153 FILLER_0_31_205
*1154 FILLER_0_31_223
*1155 FILLER_0_31_230
*1156 FILLER_0_31_238
*1157 FILLER_0_31_257
*1158 FILLER_0_31_263
*1159 FILLER_0_31_27
*1160 FILLER_0_31_3
*1161 FILLER_0_31_301
*1162 FILLER_0_31_349
*1163 FILLER_0_31_39
*1164 FILLER_0_31_51
*1165 FILLER_0_31_55
*1166 FILLER_0_31_57
*1167 FILLER_0_31_69
*1168 FILLER_0_31_81
*1169 FILLER_0_31_93
*1170 FILLER_0_32_109
*1171 FILLER_0_32_121
*1172 FILLER_0_32_135
*1173 FILLER_0_32_139
*1174 FILLER_0_32_148
*1175 FILLER_0_32_15
*1176 FILLER_0_32_156
*1177 FILLER_0_32_174
*1178 FILLER_0_32_189
*1179 FILLER_0_32_195
*1180 FILLER_0_32_197
*1181 FILLER_0_32_217
*1182 FILLER_0_32_240
*1183 FILLER_0_32_247
*1184 FILLER_0_32_251
*1185 FILLER_0_32_253
*1186 FILLER_0_32_257
*1187 FILLER_0_32_27
*1188 FILLER_0_32_272
*1189 FILLER_0_32_29
*1190 FILLER_0_32_297
*1191 FILLER_0_32_3
*1192 FILLER_0_32_305
*1193 FILLER_0_32_345
*1194 FILLER_0_32_41
*1195 FILLER_0_32_53
*1196 FILLER_0_32_65
*1197 FILLER_0_32_77
*1198 FILLER_0_32_83
*1199 FILLER_0_32_85
*1200 FILLER_0_32_97
*1201 FILLER_0_33_105
*1202 FILLER_0_33_111
*1203 FILLER_0_33_113
*1204 FILLER_0_33_145
*1205 FILLER_0_33_15
*1206 FILLER_0_33_157
*1207 FILLER_0_33_169
*1208 FILLER_0_33_181
*1209 FILLER_0_33_193
*1210 FILLER_0_33_204
*1211 FILLER_0_33_222
*1212 FILLER_0_33_230
*1213 FILLER_0_33_242
*1214 FILLER_0_33_246
*1215 FILLER_0_33_256
*1216 FILLER_0_33_268
*1217 FILLER_0_33_27
*1218 FILLER_0_33_275
*1219 FILLER_0_33_279
*1220 FILLER_0_33_281
*1221 FILLER_0_33_286
*1222 FILLER_0_33_290
*1223 FILLER_0_33_299
*1224 FILLER_0_33_3
*1225 FILLER_0_33_325
*1226 FILLER_0_33_337
*1227 FILLER_0_33_39
*1228 FILLER_0_33_51
*1229 FILLER_0_33_55
*1230 FILLER_0_33_57
*1231 FILLER_0_33_69
*1232 FILLER_0_33_81
*1233 FILLER_0_33_93
*1234 FILLER_0_34_109
*1235 FILLER_0_34_124
*1236 FILLER_0_34_134
*1237 FILLER_0_34_141
*1238 FILLER_0_34_15
*1239 FILLER_0_34_153
*1240 FILLER_0_34_165
*1241 FILLER_0_34_169
*1242 FILLER_0_34_184
*1243 FILLER_0_34_200
*1244 FILLER_0_34_213
*1245 FILLER_0_34_225
*1246 FILLER_0_34_237
*1247 FILLER_0_34_249
*1248 FILLER_0_34_253
*1249 FILLER_0_34_27
*1250 FILLER_0_34_279
*1251 FILLER_0_34_29
*1252 FILLER_0_34_291
*1253 FILLER_0_34_299
*1254 FILLER_0_34_3
*1255 FILLER_0_34_325
*1256 FILLER_0_34_329
*1257 FILLER_0_34_346
*1258 FILLER_0_34_350
*1259 FILLER_0_34_41
*1260 FILLER_0_34_53
*1261 FILLER_0_34_65
*1262 FILLER_0_34_77
*1263 FILLER_0_34_83
*1264 FILLER_0_34_85
*1265 FILLER_0_34_97
*1266 FILLER_0_35_105
*1267 FILLER_0_35_111
*1268 FILLER_0_35_113
*1269 FILLER_0_35_139
*1270 FILLER_0_35_147
*1271 FILLER_0_35_15
*1272 FILLER_0_35_157
*1273 FILLER_0_35_190
*1274 FILLER_0_35_207
*1275 FILLER_0_35_211
*1276 FILLER_0_35_223
*1277 FILLER_0_35_228
*1278 FILLER_0_35_240
*1279 FILLER_0_35_27
*1280 FILLER_0_35_278
*1281 FILLER_0_35_281
*1282 FILLER_0_35_3
*1283 FILLER_0_35_303
*1284 FILLER_0_35_346
*1285 FILLER_0_35_350
*1286 FILLER_0_35_39
*1287 FILLER_0_35_51
*1288 FILLER_0_35_55
*1289 FILLER_0_35_57
*1290 FILLER_0_35_69
*1291 FILLER_0_35_81
*1292 FILLER_0_35_93
*1293 FILLER_0_36_109
*1294 FILLER_0_36_121
*1295 FILLER_0_36_136
*1296 FILLER_0_36_15
*1297 FILLER_0_36_154
*1298 FILLER_0_36_189
*1299 FILLER_0_36_211
*1300 FILLER_0_36_219
*1301 FILLER_0_36_246
*1302 FILLER_0_36_27
*1303 FILLER_0_36_29
*1304 FILLER_0_36_3
*1305 FILLER_0_36_348
*1306 FILLER_0_36_41
*1307 FILLER_0_36_53
*1308 FILLER_0_36_65
*1309 FILLER_0_36_77
*1310 FILLER_0_36_83
*1311 FILLER_0_36_85
*1312 FILLER_0_36_97
*1313 FILLER_0_37_100
*1314 FILLER_0_37_113
*1315 FILLER_0_37_125
*1316 FILLER_0_37_136
*1317 FILLER_0_37_15
*1318 FILLER_0_37_150
*1319 FILLER_0_37_158
*1320 FILLER_0_37_180
*1321 FILLER_0_37_186
*1322 FILLER_0_37_214
*1323 FILLER_0_37_244
*1324 FILLER_0_37_250
*1325 FILLER_0_37_27
*1326 FILLER_0_37_281
*1327 FILLER_0_37_3
*1328 FILLER_0_37_304
*1329 FILLER_0_37_349
*1330 FILLER_0_37_39
*1331 FILLER_0_37_51
*1332 FILLER_0_37_55
*1333 FILLER_0_37_57
*1334 FILLER_0_37_69
*1335 FILLER_0_37_81
*1336 FILLER_0_37_88
*1337 FILLER_0_38_100
*1338 FILLER_0_38_106
*1339 FILLER_0_38_110
*1340 FILLER_0_38_113
*1341 FILLER_0_38_118
*1342 FILLER_0_38_122
*1343 FILLER_0_38_126
*1344 FILLER_0_38_130
*1345 FILLER_0_38_134
*1346 FILLER_0_38_14
*1347 FILLER_0_38_141
*1348 FILLER_0_38_153
*1349 FILLER_0_38_169
*1350 FILLER_0_38_18
*1351 FILLER_0_38_183
*1352 FILLER_0_38_195
*1353 FILLER_0_38_200
*1354 FILLER_0_38_208
*1355 FILLER_0_38_214
*1356 FILLER_0_38_22
*1357 FILLER_0_38_222
*1358 FILLER_0_38_225
*1359 FILLER_0_38_240
*1360 FILLER_0_38_246
*1361 FILLER_0_38_264
*1362 FILLER_0_38_281
*1363 FILLER_0_38_3
*1364 FILLER_0_38_301
*1365 FILLER_0_38_318
*1366 FILLER_0_38_32
*1367 FILLER_0_38_337
*1368 FILLER_0_38_38
*1369 FILLER_0_38_42
*1370 FILLER_0_38_46
*1371 FILLER_0_38_50
*1372 FILLER_0_38_54
*1373 FILLER_0_38_57
*1374 FILLER_0_38_62
*1375 FILLER_0_38_66
*1376 FILLER_0_38_70
*1377 FILLER_0_38_82
*1378 FILLER_0_38_88
*1379 FILLER_0_3_105
*1380 FILLER_0_3_111
*1381 FILLER_0_3_113
*1382 FILLER_0_3_125
*1383 FILLER_0_3_137
*1384 FILLER_0_3_149
*1385 FILLER_0_3_15
*1386 FILLER_0_3_161
*1387 FILLER_0_3_167
*1388 FILLER_0_3_169
*1389 FILLER_0_3_181
*1390 FILLER_0_3_193
*1391 FILLER_0_3_205
*1392 FILLER_0_3_217
*1393 FILLER_0_3_223
*1394 FILLER_0_3_225
*1395 FILLER_0_3_237
*1396 FILLER_0_3_249
*1397 FILLER_0_3_261
*1398 FILLER_0_3_27
*1399 FILLER_0_3_273
*1400 FILLER_0_3_279
*1401 FILLER_0_3_281
*1402 FILLER_0_3_293
*1403 FILLER_0_3_3
*1404 FILLER_0_3_305
*1405 FILLER_0_3_317
*1406 FILLER_0_3_329
*1407 FILLER_0_3_335
*1408 FILLER_0_3_337
*1409 FILLER_0_3_349
*1410 FILLER_0_3_39
*1411 FILLER_0_3_51
*1412 FILLER_0_3_55
*1413 FILLER_0_3_57
*1414 FILLER_0_3_69
*1415 FILLER_0_3_81
*1416 FILLER_0_3_93
*1417 FILLER_0_4_109
*1418 FILLER_0_4_121
*1419 FILLER_0_4_133
*1420 FILLER_0_4_139
*1421 FILLER_0_4_141
*1422 FILLER_0_4_15
*1423 FILLER_0_4_153
*1424 FILLER_0_4_165
*1425 FILLER_0_4_177
*1426 FILLER_0_4_189
*1427 FILLER_0_4_195
*1428 FILLER_0_4_197
*1429 FILLER_0_4_209
*1430 FILLER_0_4_221
*1431 FILLER_0_4_233
*1432 FILLER_0_4_245
*1433 FILLER_0_4_251
*1434 FILLER_0_4_253
*1435 FILLER_0_4_265
*1436 FILLER_0_4_27
*1437 FILLER_0_4_277
*1438 FILLER_0_4_289
*1439 FILLER_0_4_29
*1440 FILLER_0_4_3
*1441 FILLER_0_4_301
*1442 FILLER_0_4_307
*1443 FILLER_0_4_309
*1444 FILLER_0_4_321
*1445 FILLER_0_4_333
*1446 FILLER_0_4_345
*1447 FILLER_0_4_41
*1448 FILLER_0_4_53
*1449 FILLER_0_4_65
*1450 FILLER_0_4_77
*1451 FILLER_0_4_83
*1452 FILLER_0_4_85
*1453 FILLER_0_4_97
*1454 FILLER_0_5_105
*1455 FILLER_0_5_111
*1456 FILLER_0_5_113
*1457 FILLER_0_5_125
*1458 FILLER_0_5_137
*1459 FILLER_0_5_149
*1460 FILLER_0_5_15
*1461 FILLER_0_5_161
*1462 FILLER_0_5_167
*1463 FILLER_0_5_169
*1464 FILLER_0_5_181
*1465 FILLER_0_5_193
*1466 FILLER_0_5_205
*1467 FILLER_0_5_217
*1468 FILLER_0_5_223
*1469 FILLER_0_5_225
*1470 FILLER_0_5_237
*1471 FILLER_0_5_249
*1472 FILLER_0_5_261
*1473 FILLER_0_5_27
*1474 FILLER_0_5_273
*1475 FILLER_0_5_279
*1476 FILLER_0_5_281
*1477 FILLER_0_5_293
*1478 FILLER_0_5_3
*1479 FILLER_0_5_305
*1480 FILLER_0_5_317
*1481 FILLER_0_5_329
*1482 FILLER_0_5_335
*1483 FILLER_0_5_337
*1484 FILLER_0_5_349
*1485 FILLER_0_5_39
*1486 FILLER_0_5_51
*1487 FILLER_0_5_55
*1488 FILLER_0_5_57
*1489 FILLER_0_5_69
*1490 FILLER_0_5_81
*1491 FILLER_0_5_93
*1492 FILLER_0_6_109
*1493 FILLER_0_6_121
*1494 FILLER_0_6_133
*1495 FILLER_0_6_139
*1496 FILLER_0_6_141
*1497 FILLER_0_6_15
*1498 FILLER_0_6_153
*1499 FILLER_0_6_165
*1500 FILLER_0_6_177
*1501 FILLER_0_6_189
*1502 FILLER_0_6_195
*1503 FILLER_0_6_197
*1504 FILLER_0_6_209
*1505 FILLER_0_6_221
*1506 FILLER_0_6_233
*1507 FILLER_0_6_245
*1508 FILLER_0_6_251
*1509 FILLER_0_6_253
*1510 FILLER_0_6_265
*1511 FILLER_0_6_27
*1512 FILLER_0_6_277
*1513 FILLER_0_6_289
*1514 FILLER_0_6_29
*1515 FILLER_0_6_3
*1516 FILLER_0_6_301
*1517 FILLER_0_6_307
*1518 FILLER_0_6_309
*1519 FILLER_0_6_321
*1520 FILLER_0_6_333
*1521 FILLER_0_6_345
*1522 FILLER_0_6_41
*1523 FILLER_0_6_53
*1524 FILLER_0_6_65
*1525 FILLER_0_6_77
*1526 FILLER_0_6_83
*1527 FILLER_0_6_85
*1528 FILLER_0_6_97
*1529 FILLER_0_7_105
*1530 FILLER_0_7_111
*1531 FILLER_0_7_113
*1532 FILLER_0_7_125
*1533 FILLER_0_7_137
*1534 FILLER_0_7_149
*1535 FILLER_0_7_15
*1536 FILLER_0_7_161
*1537 FILLER_0_7_167
*1538 FILLER_0_7_169
*1539 FILLER_0_7_181
*1540 FILLER_0_7_193
*1541 FILLER_0_7_205
*1542 FILLER_0_7_217
*1543 FILLER_0_7_223
*1544 FILLER_0_7_225
*1545 FILLER_0_7_237
*1546 FILLER_0_7_249
*1547 FILLER_0_7_261
*1548 FILLER_0_7_27
*1549 FILLER_0_7_273
*1550 FILLER_0_7_279
*1551 FILLER_0_7_281