*SPEF "ieee 1481-1999"
*DESIGN "tt_um_wokwi_375288605206694913"
*DATE "11:11:11 Fri 11 11, 1111"
*VENDOR "OpenRCX"
*PROGRAM "Parallel Extraction"
*VERSION "1.0"
*DESIGN_FLOW "NAME_SCOPE LOCAL" "PIN_CAP NONE"
*DIVIDER /
*DELIMITER :
*BUS_DELIMITER []
*T_UNIT 1 NS
*C_UNIT 1 PF
*R_UNIT 1 OHM
*L_UNIT 1 HENRY

*NAME_MAP
*3 clk
*4 ena
*5 rst_n
*6 ui_in[0]
*7 ui_in[1]
*8 ui_in[2]
*9 ui_in[3]
*10 ui_in[4]
*11 ui_in[5]
*12 ui_in[6]
*13 ui_in[7]
*14 uio_in[0]
*15 uio_in[1]
*16 uio_in[2]
*17 uio_in[3]
*18 uio_in[4]
*19 uio_in[5]
*20 uio_in[6]
*21 uio_in[7]
*22 net6
*23 net7
*24 net8
*25 net9
*26 net10
*27 net11
*28 net12
*29 net13
*30 net14
*31 net15
*32 net16
*33 net17
*34 net18
*35 net19
*36 net20
*37 net21
*38 uo_out[0]
*39 uo_out[1]
*40 uo_out[2]
*41 uo_out[3]
*42 uo_out[4]
*43 uo_out[5]
*44 net22
*45 net23
*46 _000_
*47 _001_
*48 _002_
*49 _003_
*50 _004_
*51 _005_
*52 _006_
*53 _007_
*54 _008_
*55 _009_
*56 _010_
*57 _011_
*58 and1\.out
*59 and2\.a
*60 and2\.b
*61 and4\.b
*62 and5\.a
*63 and6\.out
*64 clknet_0__004_
*65 clknet_0_clk
*66 clknet_0_flop2\.clk
*67 clknet_0_flop30\.clk
*68 clknet_0_flop32\.clk
*69 clknet_1_0__leaf__004_
*70 clknet_1_0__leaf_clk
*71 clknet_1_0__leaf_flop2\.clk
*72 clknet_1_0__leaf_flop30\.clk
*73 clknet_1_0__leaf_flop32\.clk
*74 clknet_1_1__leaf__004_
*75 clknet_1_1__leaf_clk
*76 clknet_1_1__leaf_flop2\.clk
*77 clknet_1_1__leaf_flop30\.clk
*78 clknet_1_1__leaf_flop32\.clk
*79 flop1\.d
*80 flop1\.q
*81 flop10\.clk
*82 flop10\.d
*83 flop10\.q
*84 flop11\.d
*85 flop11\.q
*86 flop12\.d
*87 flop12\.q
*88 flop13\.d
*89 flop13\.q
*90 flop14\.d
*91 flop14\.q
*92 flop15\.d
*93 flop15\.q
*94 flop16\.d
*95 flop16\.q
*96 flop17\.d
*97 flop17\.q
*98 flop18\.clk
*99 flop18\.d
*100 flop18\.q
*101 flop19\.d
*102 flop19\.q
*103 flop2\.clk
*104 flop2\.d
*105 flop2\.q
*106 flop20\.d
*107 flop20\.q
*108 flop21\.d
*109 flop21\.q
*110 flop22\.d
*111 flop22\.q
*112 flop23\.d
*113 flop23\.q
*114 flop24\.d
*115 flop24\.q
*116 flop25\.d
*117 flop25\.q
*118 flop26\.clk
*119 flop26\.d
*120 flop26\.q
*121 flop27\.d
*122 flop27\.q
*123 flop28\.d
*124 flop28\.q
*125 flop29\.d
*126 flop29\.q
*127 flop3\.d
*128 flop3\.q
*129 flop30\.clk
*130 flop30\.d
*131 flop30\.q
*132 flop31\.d
*133 flop31\.q
*134 flop32\.clk
*135 flop32\.q
*136 flop33\.q
*137 flop34\.q
*138 flop35\.q
*139 flop36\.q
*140 flop37\.q
*141 flop4\.d
*142 flop4\.q
*143 flop40\.d
*144 flop5\.d
*145 flop5\.q
*146 flop6\.d
*147 flop6\.q
*148 flop7\.d
*149 flop7\.q
*150 flop8\.d
*151 flop8\.q
*152 flop9\.d
*153 net1
*154 net2
*155 net24
*156 net25
*157 net26
*158 net27
*159 net28
*160 net29
*161 net3
*162 net30
*163 net31
*164 net32
*165 net33
*166 net34
*167 net35
*168 net36
*169 net4
*170 net5
*171 FILLER_0_0_109
*172 FILLER_0_0_113
*173 FILLER_0_0_125
*174 FILLER_0_0_137
*175 FILLER_0_0_141
*176 FILLER_0_0_15
*177 FILLER_0_0_153
*178 FILLER_0_0_165
*179 FILLER_0_0_169
*180 FILLER_0_0_181
*181 FILLER_0_0_193
*182 FILLER_0_0_197
*183 FILLER_0_0_209
*184 FILLER_0_0_221
*185 FILLER_0_0_225
*186 FILLER_0_0_237
*187 FILLER_0_0_249
*188 FILLER_0_0_253
*189 FILLER_0_0_265
*190 FILLER_0_0_27
*191 FILLER_0_0_277
*192 FILLER_0_0_281
*193 FILLER_0_0_29
*194 FILLER_0_0_293
*195 FILLER_0_0_3
*196 FILLER_0_0_305
*197 FILLER_0_0_309
*198 FILLER_0_0_321
*199 FILLER_0_0_333
*200 FILLER_0_0_337
*201 FILLER_0_0_349
*202 FILLER_0_0_41
*203 FILLER_0_0_53
*204 FILLER_0_0_57
*205 FILLER_0_0_69
*206 FILLER_0_0_81
*207 FILLER_0_0_85
*208 FILLER_0_0_97
*209 FILLER_0_10_109
*210 FILLER_0_10_121
*211 FILLER_0_10_133
*212 FILLER_0_10_139
*213 FILLER_0_10_141
*214 FILLER_0_10_15
*215 FILLER_0_10_153
*216 FILLER_0_10_165
*217 FILLER_0_10_177
*218 FILLER_0_10_189
*219 FILLER_0_10_195
*220 FILLER_0_10_197
*221 FILLER_0_10_209
*222 FILLER_0_10_221
*223 FILLER_0_10_233
*224 FILLER_0_10_245
*225 FILLER_0_10_251
*226 FILLER_0_10_253
*227 FILLER_0_10_265
*228 FILLER_0_10_27
*229 FILLER_0_10_277
*230 FILLER_0_10_289
*231 FILLER_0_10_29
*232 FILLER_0_10_3
*233 FILLER_0_10_301
*234 FILLER_0_10_307
*235 FILLER_0_10_309
*236 FILLER_0_10_321
*237 FILLER_0_10_333
*238 FILLER_0_10_345
*239 FILLER_0_10_41
*240 FILLER_0_10_53
*241 FILLER_0_10_65
*242 FILLER_0_10_77
*243 FILLER_0_10_83
*244 FILLER_0_10_85
*245 FILLER_0_10_97
*246 FILLER_0_11_105
*247 FILLER_0_11_111
*248 FILLER_0_11_113
*249 FILLER_0_11_125
*250 FILLER_0_11_137
*251 FILLER_0_11_149
*252 FILLER_0_11_15
*253 FILLER_0_11_161
*254 FILLER_0_11_167
*255 FILLER_0_11_169
*256 FILLER_0_11_181
*257 FILLER_0_11_193
*258 FILLER_0_11_205
*259 FILLER_0_11_217
*260 FILLER_0_11_223
*261 FILLER_0_11_225
*262 FILLER_0_11_237
*263 FILLER_0_11_249
*264 FILLER_0_11_261
*265 FILLER_0_11_27
*266 FILLER_0_11_273
*267 FILLER_0_11_279
*268 FILLER_0_11_281
*269 FILLER_0_11_293
*270 FILLER_0_11_3
*271 FILLER_0_11_305
*272 FILLER_0_11_317
*273 FILLER_0_11_329
*274 FILLER_0_11_335
*275 FILLER_0_11_337
*276 FILLER_0_11_349
*277 FILLER_0_11_39
*278 FILLER_0_11_51
*279 FILLER_0_11_55
*280 FILLER_0_11_57
*281 FILLER_0_11_69
*282 FILLER_0_11_81
*283 FILLER_0_11_93
*284 FILLER_0_12_109
*285 FILLER_0_12_121
*286 FILLER_0_12_133
*287 FILLER_0_12_139
*288 FILLER_0_12_141
*289 FILLER_0_12_15
*290 FILLER_0_12_153
*291 FILLER_0_12_165
*292 FILLER_0_12_177
*293 FILLER_0_12_189
*294 FILLER_0_12_195
*295 FILLER_0_12_197
*296 FILLER_0_12_209
*297 FILLER_0_12_221
*298 FILLER_0_12_233
*299 FILLER_0_12_245
*300 FILLER_0_12_251
*301 FILLER_0_12_253
*302 FILLER_0_12_265
*303 FILLER_0_12_27
*304 FILLER_0_12_277
*305 FILLER_0_12_289
*306 FILLER_0_12_29
*307 FILLER_0_12_3
*308 FILLER_0_12_301
*309 FILLER_0_12_307
*310 FILLER_0_12_309
*311 FILLER_0_12_321
*312 FILLER_0_12_333
*313 FILLER_0_12_345
*314 FILLER_0_12_41
*315 FILLER_0_12_53
*316 FILLER_0_12_65
*317 FILLER_0_12_77
*318 FILLER_0_12_83
*319 FILLER_0_12_85
*320 FILLER_0_12_97
*321 FILLER_0_13_105
*322 FILLER_0_13_111
*323 FILLER_0_13_113
*324 FILLER_0_13_125
*325 FILLER_0_13_137
*326 FILLER_0_13_149
*327 FILLER_0_13_15
*328 FILLER_0_13_161
*329 FILLER_0_13_167
*330 FILLER_0_13_169
*331 FILLER_0_13_181
*332 FILLER_0_13_193
*333 FILLER_0_13_205
*334 FILLER_0_13_217
*335 FILLER_0_13_223
*336 FILLER_0_13_225
*337 FILLER_0_13_237
*338 FILLER_0_13_249
*339 FILLER_0_13_261
*340 FILLER_0_13_27
*341 FILLER_0_13_273
*342 FILLER_0_13_279
*343 FILLER_0_13_281
*344 FILLER_0_13_293
*345 FILLER_0_13_3
*346 FILLER_0_13_305
*347 FILLER_0_13_317
*348 FILLER_0_13_329
*349 FILLER_0_13_335
*350 FILLER_0_13_337
*351 FILLER_0_13_349
*352 FILLER_0_13_39
*353 FILLER_0_13_51
*354 FILLER_0_13_55
*355 FILLER_0_13_57
*356 FILLER_0_13_69
*357 FILLER_0_13_81
*358 FILLER_0_13_93
*359 FILLER_0_14_109
*360 FILLER_0_14_121
*361 FILLER_0_14_133
*362 FILLER_0_14_139
*363 FILLER_0_14_141
*364 FILLER_0_14_15
*365 FILLER_0_14_153
*366 FILLER_0_14_165
*367 FILLER_0_14_177
*368 FILLER_0_14_189
*369 FILLER_0_14_195
*370 FILLER_0_14_197
*371 FILLER_0_14_209
*372 FILLER_0_14_221
*373 FILLER_0_14_233
*374 FILLER_0_14_245
*375 FILLER_0_14_251
*376 FILLER_0_14_253
*377 FILLER_0_14_265
*378 FILLER_0_14_27
*379 FILLER_0_14_277
*380 FILLER_0_14_289
*381 FILLER_0_14_29
*382 FILLER_0_14_3
*383 FILLER_0_14_301
*384 FILLER_0_14_307
*385 FILLER_0_14_309
*386 FILLER_0_14_321
*387 FILLER_0_14_333
*388 FILLER_0_14_345
*389 FILLER_0_14_41
*390 FILLER_0_14_53
*391 FILLER_0_14_65
*392 FILLER_0_14_77
*393 FILLER_0_14_83
*394 FILLER_0_14_85
*395 FILLER_0_14_97
*396 FILLER_0_15_105
*397 FILLER_0_15_111
*398 FILLER_0_15_113
*399 FILLER_0_15_125
*400 FILLER_0_15_137
*401 FILLER_0_15_149
*402 FILLER_0_15_15
*403 FILLER_0_15_161
*404 FILLER_0_15_167
*405 FILLER_0_15_169
*406 FILLER_0_15_181
*407 FILLER_0_15_193
*408 FILLER_0_15_205
*409 FILLER_0_15_217
*410 FILLER_0_15_223
*411 FILLER_0_15_225
*412 FILLER_0_15_237
*413 FILLER_0_15_249
*414 FILLER_0_15_261
*415 FILLER_0_15_27
*416 FILLER_0_15_273
*417 FILLER_0_15_279
*418 FILLER_0_15_281
*419 FILLER_0_15_293
*420 FILLER_0_15_3
*421 FILLER_0_15_305
*422 FILLER_0_15_317
*423 FILLER_0_15_329
*424 FILLER_0_15_335
*425 FILLER_0_15_337
*426 FILLER_0_15_349
*427 FILLER_0_15_39
*428 FILLER_0_15_51
*429 FILLER_0_15_55
*430 FILLER_0_15_57
*431 FILLER_0_15_69
*432 FILLER_0_15_81
*433 FILLER_0_15_93
*434 FILLER_0_16_109
*435 FILLER_0_16_121
*436 FILLER_0_16_133
*437 FILLER_0_16_139
*438 FILLER_0_16_141
*439 FILLER_0_16_15
*440 FILLER_0_16_153
*441 FILLER_0_16_165
*442 FILLER_0_16_177
*443 FILLER_0_16_189
*444 FILLER_0_16_195
*445 FILLER_0_16_197
*446 FILLER_0_16_209
*447 FILLER_0_16_221
*448 FILLER_0_16_233
*449 FILLER_0_16_245
*450 FILLER_0_16_251
*451 FILLER_0_16_253
*452 FILLER_0_16_265
*453 FILLER_0_16_27
*454 FILLER_0_16_277
*455 FILLER_0_16_289
*456 FILLER_0_16_29
*457 FILLER_0_16_3
*458 FILLER_0_16_301
*459 FILLER_0_16_307
*460 FILLER_0_16_309
*461 FILLER_0_16_321
*462 FILLER_0_16_333
*463 FILLER_0_16_345
*464 FILLER_0_16_41
*465 FILLER_0_16_53
*466 FILLER_0_16_65
*467 FILLER_0_16_77
*468 FILLER_0_16_83
*469 FILLER_0_16_85
*470 FILLER_0_16_97
*471 FILLER_0_17_105
*472 FILLER_0_17_111
*473 FILLER_0_17_113
*474 FILLER_0_17_125
*475 FILLER_0_17_137
*476 FILLER_0_17_149
*477 FILLER_0_17_15
*478 FILLER_0_17_161
*479 FILLER_0_17_167
*480 FILLER_0_17_169
*481 FILLER_0_17_181
*482 FILLER_0_17_193
*483 FILLER_0_17_205
*484 FILLER_0_17_217
*485 FILLER_0_17_223
*486 FILLER_0_17_225
*487 FILLER_0_17_237
*488 FILLER_0_17_249
*489 FILLER_0_17_261
*490 FILLER_0_17_27
*491 FILLER_0_17_273
*492 FILLER_0_17_279
*493 FILLER_0_17_281
*494 FILLER_0_17_293
*495 FILLER_0_17_3
*496 FILLER_0_17_305
*497 FILLER_0_17_317
*498 FILLER_0_17_329
*499 FILLER_0_17_335
*500 FILLER_0_17_337
*501 FILLER_0_17_349
*502 FILLER_0_17_39
*503 FILLER_0_17_51
*504 FILLER_0_17_55
*505 FILLER_0_17_57
*506 FILLER_0_17_69
*507 FILLER_0_17_81
*508 FILLER_0_17_93
*509 FILLER_0_18_109
*510 FILLER_0_18_121
*511 FILLER_0_18_133
*512 FILLER_0_18_139
*513 FILLER_0_18_141
*514 FILLER_0_18_15
*515 FILLER_0_18_153
*516 FILLER_0_18_165
*517 FILLER_0_18_177
*518 FILLER_0_18_189
*519 FILLER_0_18_195
*520 FILLER_0_18_197
*521 FILLER_0_18_209
*522 FILLER_0_18_221
*523 FILLER_0_18_233
*524 FILLER_0_18_245
*525 FILLER_0_18_251
*526 FILLER_0_18_253
*527 FILLER_0_18_265
*528 FILLER_0_18_27
*529 FILLER_0_18_277
*530 FILLER_0_18_289
*531 FILLER_0_18_29
*532 FILLER_0_18_3
*533 FILLER_0_18_301
*534 FILLER_0_18_307
*535 FILLER_0_18_309
*536 FILLER_0_18_321
*537 FILLER_0_18_333
*538 FILLER_0_18_345
*539 FILLER_0_18_41
*540 FILLER_0_18_53
*541 FILLER_0_18_65
*542 FILLER_0_18_77
*543 FILLER_0_18_83
*544 FILLER_0_18_85
*545 FILLER_0_18_97
*546 FILLER_0_19_105
*547 FILLER_0_19_111
*548 FILLER_0_19_113
*549 FILLER_0_19_125
*550 FILLER_0_19_137
*551 FILLER_0_19_149
*552 FILLER_0_19_15
*553 FILLER_0_19_161
*554 FILLER_0_19_167
*555 FILLER_0_19_169
*556 FILLER_0_19_181
*557 FILLER_0_19_193
*558 FILLER_0_19_205
*559 FILLER_0_19_217
*560 FILLER_0_19_223
*561 FILLER_0_19_225
*562 FILLER_0_19_237
*563 FILLER_0_19_249
*564 FILLER_0_19_261
*565 FILLER_0_19_27
*566 FILLER_0_19_273
*567 FILLER_0_19_279
*568 FILLER_0_19_281
*569 FILLER_0_19_293
*570 FILLER_0_19_3
*571 FILLER_0_19_305
*572 FILLER_0_19_317
*573 FILLER_0_19_329
*574 FILLER_0_19_335
*575 FILLER_0_19_337
*576 FILLER_0_19_349
*577 FILLER_0_19_39
*578 FILLER_0_19_51
*579 FILLER_0_19_55
*580 FILLER_0_19_57
*581 FILLER_0_19_69
*582 FILLER_0_19_81
*583 FILLER_0_19_93
*584 FILLER_0_1_105
*585 FILLER_0_1_111
*586 FILLER_0_1_113
*587 FILLER_0_1_125
*588 FILLER_0_1_137
*589 FILLER_0_1_149
*590 FILLER_0_1_15
*591 FILLER_0_1_161
*592 FILLER_0_1_167
*593 FILLER_0_1_169
*594 FILLER_0_1_181
*595 FILLER_0_1_193
*596 FILLER_0_1_205
*597 FILLER_0_1_217
*598 FILLER_0_1_223
*599 FILLER_0_1_225
*600 FILLER_0_1_237
*601 FILLER_0_1_249
*602 FILLER_0_1_261
*603 FILLER_0_1_27
*604 FILLER_0_1_273
*605 FILLER_0_1_279
*606 FILLER_0_1_281
*607 FILLER_0_1_293
*608 FILLER_0_1_3
*609 FILLER_0_1_305
*610 FILLER_0_1_317
*611 FILLER_0_1_329
*612 FILLER_0_1_335
*613 FILLER_0_1_337
*614 FILLER_0_1_349
*615 FILLER_0_1_39
*616 FILLER_0_1_51
*617 FILLER_0_1_55
*618 FILLER_0_1_57
*619 FILLER_0_1_69
*620 FILLER_0_1_81
*621 FILLER_0_1_93
*622 FILLER_0_20_109
*623 FILLER_0_20_121
*624 FILLER_0_20_133
*625 FILLER_0_20_139
*626 FILLER_0_20_141
*627 FILLER_0_20_15
*628 FILLER_0_20_153
*629 FILLER_0_20_165
*630 FILLER_0_20_177
*631 FILLER_0_20_189
*632 FILLER_0_20_195
*633 FILLER_0_20_197
*634 FILLER_0_20_209
*635 FILLER_0_20_221
*636 FILLER_0_20_233
*637 FILLER_0_20_245
*638 FILLER_0_20_251
*639 FILLER_0_20_253
*640 FILLER_0_20_265
*641 FILLER_0_20_27
*642 FILLER_0_20_277
*643 FILLER_0_20_289
*644 FILLER_0_20_29
*645 FILLER_0_20_3
*646 FILLER_0_20_301
*647 FILLER_0_20_307
*648 FILLER_0_20_309
*649 FILLER_0_20_321
*650 FILLER_0_20_333
*651 FILLER_0_20_345
*652 FILLER_0_20_41
*653 FILLER_0_20_53
*654 FILLER_0_20_65
*655 FILLER_0_20_77
*656 FILLER_0_20_83
*657 FILLER_0_20_85
*658 FILLER_0_20_97
*659 FILLER_0_21_105
*660 FILLER_0_21_111
*661 FILLER_0_21_113
*662 FILLER_0_21_125
*663 FILLER_0_21_137
*664 FILLER_0_21_149
*665 FILLER_0_21_15
*666 FILLER_0_21_161
*667 FILLER_0_21_167
*668 FILLER_0_21_169
*669 FILLER_0_21_181
*670 FILLER_0_21_193
*671 FILLER_0_21_205
*672 FILLER_0_21_217
*673 FILLER_0_21_223
*674 FILLER_0_21_225
*675 FILLER_0_21_237
*676 FILLER_0_21_249
*677 FILLER_0_21_261
*678 FILLER_0_21_27
*679 FILLER_0_21_273
*680 FILLER_0_21_279
*681 FILLER_0_21_281
*682 FILLER_0_21_293
*683 FILLER_0_21_3
*684 FILLER_0_21_305
*685 FILLER_0_21_317
*686 FILLER_0_21_329
*687 FILLER_0_21_335
*688 FILLER_0_21_337
*689 FILLER_0_21_349
*690 FILLER_0_21_39
*691 FILLER_0_21_51
*692 FILLER_0_21_55
*693 FILLER_0_21_57
*694 FILLER_0_21_69
*695 FILLER_0_21_81
*696 FILLER_0_21_93
*697 FILLER_0_22_109
*698 FILLER_0_22_121
*699 FILLER_0_22_133
*700 FILLER_0_22_139
*701 FILLER_0_22_141
*702 FILLER_0_22_15
*703 FILLER_0_22_153
*704 FILLER_0_22_165
*705 FILLER_0_22_177
*706 FILLER_0_22_189
*707 FILLER_0_22_195
*708 FILLER_0_22_197
*709 FILLER_0_22_209
*710 FILLER_0_22_221
*711 FILLER_0_22_233
*712 FILLER_0_22_245
*713 FILLER_0_22_251
*714 FILLER_0_22_253
*715 FILLER_0_22_265
*716 FILLER_0_22_27
*717 FILLER_0_22_277
*718 FILLER_0_22_289
*719 FILLER_0_22_29
*720 FILLER_0_22_3
*721 FILLER_0_22_301
*722 FILLER_0_22_307
*723 FILLER_0_22_309
*724 FILLER_0_22_321
*725 FILLER_0_22_333
*726 FILLER_0_22_345
*727 FILLER_0_22_41
*728 FILLER_0_22_53
*729 FILLER_0_22_65
*730 FILLER_0_22_77
*731 FILLER_0_22_83
*732 FILLER_0_22_85
*733 FILLER_0_22_97
*734 FILLER_0_23_105
*735 FILLER_0_23_111
*736 FILLER_0_23_113
*737 FILLER_0_23_125
*738 FILLER_0_23_137
*739 FILLER_0_23_149
*740 FILLER_0_23_15
*741 FILLER_0_23_161
*742 FILLER_0_23_167
*743 FILLER_0_23_169
*744 FILLER_0_23_181
*745 FILLER_0_23_193
*746 FILLER_0_23_205
*747 FILLER_0_23_217
*748 FILLER_0_23_223
*749 FILLER_0_23_225
*750 FILLER_0_23_237
*751 FILLER_0_23_249
*752 FILLER_0_23_261
*753 FILLER_0_23_27
*754 FILLER_0_23_273
*755 FILLER_0_23_279
*756 FILLER_0_23_281
*757 FILLER_0_23_293
*758 FILLER_0_23_3
*759 FILLER_0_23_305
*760 FILLER_0_23_317
*761 FILLER_0_23_329
*762 FILLER_0_23_335
*763 FILLER_0_23_337
*764 FILLER_0_23_349
*765 FILLER_0_23_39
*766 FILLER_0_23_51
*767 FILLER_0_23_55
*768 FILLER_0_23_57
*769 FILLER_0_23_69
*770 FILLER_0_23_81
*771 FILLER_0_23_93
*772 FILLER_0_24_109
*773 FILLER_0_24_121
*774 FILLER_0_24_133
*775 FILLER_0_24_139
*776 FILLER_0_24_141
*777 FILLER_0_24_15
*778 FILLER_0_24_153
*779 FILLER_0_24_165
*780 FILLER_0_24_177
*781 FILLER_0_24_189
*782 FILLER_0_24_195
*783 FILLER_0_24_197
*784 FILLER_0_24_209
*785 FILLER_0_24_221
*786 FILLER_0_24_233
*787 FILLER_0_24_245
*788 FILLER_0_24_251
*789 FILLER_0_24_253
*790 FILLER_0_24_265
*791 FILLER_0_24_27
*792 FILLER_0_24_277
*793 FILLER_0_24_289
*794 FILLER_0_24_29
*795 FILLER_0_24_3
*796 FILLER_0_24_301
*797 FILLER_0_24_307
*798 FILLER_0_24_309
*799 FILLER_0_24_321
*800 FILLER_0_24_333
*801 FILLER_0_24_345
*802 FILLER_0_24_41
*803 FILLER_0_24_53
*804 FILLER_0_24_65
*805 FILLER_0_24_77
*806 FILLER_0_24_83
*807 FILLER_0_24_85
*808 FILLER_0_24_97
*809 FILLER_0_25_105
*810 FILLER_0_25_111
*811 FILLER_0_25_113
*812 FILLER_0_25_125
*813 FILLER_0_25_137
*814 FILLER_0_25_149
*815 FILLER_0_25_15
*816 FILLER_0_25_161
*817 FILLER_0_25_167
*818 FILLER_0_25_169
*819 FILLER_0_25_181
*820 FILLER_0_25_193
*821 FILLER_0_25_205
*822 FILLER_0_25_217
*823 FILLER_0_25_223
*824 FILLER_0_25_225
*825 FILLER_0_25_237
*826 FILLER_0_25_249
*827 FILLER_0_25_261
*828 FILLER_0_25_27
*829 FILLER_0_25_273
*830 FILLER_0_25_279
*831 FILLER_0_25_281
*832 FILLER_0_25_293
*833 FILLER_0_25_3
*834 FILLER_0_25_305
*835 FILLER_0_25_317
*836 FILLER_0_25_329
*837 FILLER_0_25_335
*838 FILLER_0_25_337
*839 FILLER_0_25_349
*840 FILLER_0_25_39
*841 FILLER_0_25_51
*842 FILLER_0_25_55
*843 FILLER_0_25_57
*844 FILLER_0_25_69
*845 FILLER_0_25_81
*846 FILLER_0_25_93
*847 FILLER_0_26_109
*848 FILLER_0_26_121
*849 FILLER_0_26_133
*850 FILLER_0_26_139
*851 FILLER_0_26_141
*852 FILLER_0_26_15
*853 FILLER_0_26_153
*854 FILLER_0_26_165
*855 FILLER_0_26_177
*856 FILLER_0_26_189
*857 FILLER_0_26_195
*858 FILLER_0_26_197
*859 FILLER_0_26_209
*860 FILLER_0_26_221
*861 FILLER_0_26_233
*862 FILLER_0_26_245
*863 FILLER_0_26_251
*864 FILLER_0_26_253
*865 FILLER_0_26_265
*866 FILLER_0_26_27
*867 FILLER_0_26_277
*868 FILLER_0_26_289
*869 FILLER_0_26_29
*870 FILLER_0_26_3
*871 FILLER_0_26_301
*872 FILLER_0_26_307
*873 FILLER_0_26_309
*874 FILLER_0_26_321
*875 FILLER_0_26_333
*876 FILLER_0_26_345
*877 FILLER_0_26_41
*878 FILLER_0_26_53
*879 FILLER_0_26_65
*880 FILLER_0_26_77
*881 FILLER_0_26_83
*882 FILLER_0_26_85
*883 FILLER_0_26_97
*884 FILLER_0_27_105
*885 FILLER_0_27_111
*886 FILLER_0_27_113
*887 FILLER_0_27_125
*888 FILLER_0_27_137
*889 FILLER_0_27_149
*890 FILLER_0_27_15
*891 FILLER_0_27_161
*892 FILLER_0_27_167
*893 FILLER_0_27_169
*894 FILLER_0_27_181
*895 FILLER_0_27_193
*896 FILLER_0_27_205
*897 FILLER_0_27_217
*898 FILLER_0_27_223
*899 FILLER_0_27_225
*900 FILLER_0_27_237
*901 FILLER_0_27_249
*902 FILLER_0_27_261
*903 FILLER_0_27_27
*904 FILLER_0_27_273
*905 FILLER_0_27_279
*906 FILLER_0_27_281
*907 FILLER_0_27_293
*908 FILLER_0_27_3
*909 FILLER_0_27_305
*910 FILLER_0_27_317
*911 FILLER_0_27_329
*912 FILLER_0_27_335
*913 FILLER_0_27_337
*914 FILLER_0_27_349
*915 FILLER_0_27_39
*916 FILLER_0_27_51
*917 FILLER_0_27_55
*918 FILLER_0_27_57
*919 FILLER_0_27_69
*920 FILLER_0_27_81
*921 FILLER_0_27_93
*922 FILLER_0_28_109
*923 FILLER_0_28_121
*924 FILLER_0_28_133
*925 FILLER_0_28_139
*926 FILLER_0_28_141
*927 FILLER_0_28_15
*928 FILLER_0_28_153
*929 FILLER_0_28_165
*930 FILLER_0_28_177
*931 FILLER_0_28_189
*932 FILLER_0_28_195
*933 FILLER_0_28_197
*934 FILLER_0_28_209
*935 FILLER_0_28_221
*936 FILLER_0_28_233
*937 FILLER_0_28_245
*938 FILLER_0_28_251
*939 FILLER_0_28_253
*940 FILLER_0_28_265
*941 FILLER_0_28_27
*942 FILLER_0_28_277
*943 FILLER_0_28_289
*944 FILLER_0_28_29
*945 FILLER_0_28_3
*946 FILLER_0_28_301
*947 FILLER_0_28_307
*948 FILLER_0_28_309
*949 FILLER_0_28_321
*950 FILLER_0_28_329
*951 FILLER_0_28_346
*952 FILLER_0_28_350
*953 FILLER_0_28_41
*954 FILLER_0_28_53
*955 FILLER_0_28_65
*956 FILLER_0_28_77
*957 FILLER_0_28_83
*958 FILLER_0_28_85
*959 FILLER_0_28_97
*960 FILLER_0_29_105
*961 FILLER_0_29_111
*962 FILLER_0_29_113
*963 FILLER_0_29_125
*964 FILLER_0_29_137
*965 FILLER_0_29_149
*966 FILLER_0_29_15
*967 FILLER_0_29_161
*968 FILLER_0_29_167
*969 FILLER_0_29_169
*970 FILLER_0_29_181
*971 FILLER_0_29_193
*972 FILLER_0_29_205
*973 FILLER_0_29_217
*974 FILLER_0_29_223
*975 FILLER_0_29_225
*976 FILLER_0_29_237
*977 FILLER_0_29_249
*978 FILLER_0_29_261
*979 FILLER_0_29_27
*980 FILLER_0_29_273
*981 FILLER_0_29_279
*982 FILLER_0_29_281
*983 FILLER_0_29_293
*984 FILLER_0_29_3
*985 FILLER_0_29_305
*986 FILLER_0_29_317
*987 FILLER_0_29_337
*988 FILLER_0_29_349
*989 FILLER_0_29_39
*990 FILLER_0_29_51
*991 FILLER_0_29_55
*992 FILLER_0_29_57
*993 FILLER_0_29_69
*994 FILLER_0_29_81
*995 FILLER_0_29_93
*996 FILLER_0_2_109
*997 FILLER_0_2_121
*998 FILLER_0_2_133
*999 FILLER_0_2_139
*1000 FILLER_0_2_141
*1001 FILLER_0_2_15
*1002 FILLER_0_2_153
*1003 FILLER_0_2_165
*1004 FILLER_0_2_177
*1005 FILLER_0_2_189
*1006 FILLER_0_2_195
*1007 FILLER_0_2_197
*1008 FILLER_0_2_209
*1009 FILLER_0_2_221
*1010 FILLER_0_2_233
*1011 FILLER_0_2_245
*1012 FILLER_0_2_251
*1013 FILLER_0_2_253
*1014 FILLER_0_2_265
*1015 FILLER_0_2_27
*1016 FILLER_0_2_277
*1017 FILLER_0_2_289
*1018 FILLER_0_2_29
*1019 FILLER_0_2_3
*1020 FILLER_0_2_301
*1021 FILLER_0_2_307
*1022 FILLER_0_2_309
*1023 FILLER_0_2_321
*1024 FILLER_0_2_333
*1025 FILLER_0_2_345
*1026 FILLER_0_2_41
*1027 FILLER_0_2_53
*1028 FILLER_0_2_65
*1029 FILLER_0_2_77
*1030 FILLER_0_2_83
*1031 FILLER_0_2_85
*1032 FILLER_0_2_97
*1033 FILLER_0_30_109
*1034 FILLER_0_30_121
*1035 FILLER_0_30_133
*1036 FILLER_0_30_139
*1037 FILLER_0_30_141
*1038 FILLER_0_30_15
*1039 FILLER_0_30_153
*1040 FILLER_0_30_165
*1041 FILLER_0_30_177
*1042 FILLER_0_30_189
*1043 FILLER_0_30_195
*1044 FILLER_0_30_197
*1045 FILLER_0_30_209
*1046 FILLER_0_30_221
*1047 FILLER_0_30_233
*1048 FILLER_0_30_245
*1049 FILLER_0_30_251
*1050 FILLER_0_30_253
*1051 FILLER_0_30_265
*1052 FILLER_0_30_27
*1053 FILLER_0_30_277
*1054 FILLER_0_30_289
*1055 FILLER_0_30_29
*1056 FILLER_0_30_3
*1057 FILLER_0_30_301
*1058 FILLER_0_30_307
*1059 FILLER_0_30_328
*1060 FILLER_0_30_334
*1061 FILLER_0_30_41
*1062 FILLER_0_30_53
*1063 FILLER_0_30_65
*1064 FILLER_0_30_77
*1065 FILLER_0_30_83
*1066 FILLER_0_30_85
*1067 FILLER_0_30_97
*1068 FILLER_0_31_105
*1069 FILLER_0_31_111
*1070 FILLER_0_31_113
*1071 FILLER_0_31_125
*1072 FILLER_0_31_137
*1073 FILLER_0_31_149
*1074 FILLER_0_31_15
*1075 FILLER_0_31_161
*1076 FILLER_0_31_167
*1077 FILLER_0_31_169
*1078 FILLER_0_31_181
*1079 FILLER_0_31_193
*1080 FILLER_0_31_205
*1081 FILLER_0_31_217
*1082 FILLER_0_31_223
*1083 FILLER_0_31_225
*1084 FILLER_0_31_248
*1085 FILLER_0_31_269
*1086 FILLER_0_31_27
*1087 FILLER_0_31_277
*1088 FILLER_0_31_281
*1089 FILLER_0_31_293
*1090 FILLER_0_31_3
*1091 FILLER_0_31_334
*1092 FILLER_0_31_349
*1093 FILLER_0_31_39
*1094 FILLER_0_31_51
*1095 FILLER_0_31_55
*1096 FILLER_0_31_57
*1097 FILLER_0_31_69
*1098 FILLER_0_31_81
*1099 FILLER_0_31_93
*1100 FILLER_0_32_109
*1101 FILLER_0_32_121
*1102 FILLER_0_32_133
*1103 FILLER_0_32_139
*1104 FILLER_0_32_15
*1105 FILLER_0_32_185
*1106 FILLER_0_32_193
*1107 FILLER_0_32_197
*1108 FILLER_0_32_209
*1109 FILLER_0_32_221
*1110 FILLER_0_32_242
*1111 FILLER_0_32_246
*1112 FILLER_0_32_250
*1113 FILLER_0_32_27
*1114 FILLER_0_32_273
*1115 FILLER_0_32_29
*1116 FILLER_0_32_297
*1117 FILLER_0_32_3
*1118 FILLER_0_32_307
*1119 FILLER_0_32_329
*1120 FILLER_0_32_41
*1121 FILLER_0_32_53
*1122 FILLER_0_32_65
*1123 FILLER_0_32_77
*1124 FILLER_0_32_83
*1125 FILLER_0_32_85
*1126 FILLER_0_32_97
*1127 FILLER_0_33_105
*1128 FILLER_0_33_111
*1129 FILLER_0_33_113
*1130 FILLER_0_33_125
*1131 FILLER_0_33_137
*1132 FILLER_0_33_149
*1133 FILLER_0_33_15
*1134 FILLER_0_33_169
*1135 FILLER_0_33_192
*1136 FILLER_0_33_204
*1137 FILLER_0_33_216
*1138 FILLER_0_33_220
*1139 FILLER_0_33_27
*1140 FILLER_0_33_276
*1141 FILLER_0_33_281
*1142 FILLER_0_33_289
*1143 FILLER_0_33_3
*1144 FILLER_0_33_318
*1145 FILLER_0_33_335
*1146 FILLER_0_33_39
*1147 FILLER_0_33_51
*1148 FILLER_0_33_55
*1149 FILLER_0_33_57
*1150 FILLER_0_33_69
*1151 FILLER_0_33_81
*1152 FILLER_0_33_93
*1153 FILLER_0_34_109
*1154 FILLER_0_34_121
*1155 FILLER_0_34_133
*1156 FILLER_0_34_139
*1157 FILLER_0_34_141
*1158 FILLER_0_34_15
*1159 FILLER_0_34_194
*1160 FILLER_0_34_197
*1161 FILLER_0_34_228
*1162 FILLER_0_34_240
*1163 FILLER_0_34_253
*1164 FILLER_0_34_27
*1165 FILLER_0_34_274
*1166 FILLER_0_34_284
*1167 FILLER_0_34_288
*1168 FILLER_0_34_29
*1169 FILLER_0_34_3
*1170 FILLER_0_34_349
*1171 FILLER_0_34_41
*1172 FILLER_0_34_53
*1173 FILLER_0_34_65
*1174 FILLER_0_34_77
*1175 FILLER_0_34_83
*1176 FILLER_0_34_85
*1177 FILLER_0_34_97
*1178 FILLER_0_35_105
*1179 FILLER_0_35_111
*1180 FILLER_0_35_113
*1181 FILLER_0_35_125
*1182 FILLER_0_35_137
*1183 FILLER_0_35_149
*1184 FILLER_0_35_15
*1185 FILLER_0_35_153
*1186 FILLER_0_35_205
*1187 FILLER_0_35_228
*1188 FILLER_0_35_240
*1189 FILLER_0_35_252
*1190 FILLER_0_35_260
*1191 FILLER_0_35_27
*1192 FILLER_0_35_279
*1193 FILLER_0_35_3
*1194 FILLER_0_35_313
*1195 FILLER_0_35_334
*1196 FILLER_0_35_39
*1197 FILLER_0_35_51
*1198 FILLER_0_35_55
*1199 FILLER_0_35_57
*1200 FILLER_0_35_69
*1201 FILLER_0_35_81
*1202 FILLER_0_35_93
*1203 FILLER_0_36_109
*1204 FILLER_0_36_121
*1205 FILLER_0_36_133
*1206 FILLER_0_36_139
*1207 FILLER_0_36_141
*1208 FILLER_0_36_15
*1209 FILLER_0_36_153
*1210 FILLER_0_36_170
*1211 FILLER_0_36_178
*1212 FILLER_0_36_195
*1213 FILLER_0_36_206
*1214 FILLER_0_36_244
*1215 FILLER_0_36_250
*1216 FILLER_0_36_253
*1217 FILLER_0_36_27
*1218 FILLER_0_36_29
*1219 FILLER_0_36_3
*1220 FILLER_0_36_329
*1221 FILLER_0_36_41
*1222 FILLER_0_36_53
*1223 FILLER_0_36_65
*1224 FILLER_0_36_77
*1225 FILLER_0_36_83
*1226 FILLER_0_36_85
*1227 FILLER_0_36_97
*1228 FILLER_0_37_105
*1229 FILLER_0_37_111
*1230 FILLER_0_37_113
*1231 FILLER_0_37_125
*1232 FILLER_0_37_137
*1233 FILLER_0_37_145
*1234 FILLER_0_37_15
*1235 FILLER_0_37_189
*1236 FILLER_0_37_222
*1237 FILLER_0_37_27
*1238 FILLER_0_37_276
*1239 FILLER_0_37_284
*1240 FILLER_0_37_3
*1241 FILLER_0_37_349
*1242 FILLER_0_37_39
*1243 FILLER_0_37_51
*1244 FILLER_0_37_55
*1245 FILLER_0_37_57
*1246 FILLER_0_37_69
*1247 FILLER_0_37_81
*1248 FILLER_0_37_93
*1249 FILLER_0_38_102
*1250 FILLER_0_38_106
*1251 FILLER_0_38_110
*1252 FILLER_0_38_113
*1253 FILLER_0_38_118
*1254 FILLER_0_38_122
*1255 FILLER_0_38_126
*1256 FILLER_0_38_130
*1257 FILLER_0_38_134
*1258 FILLER_0_38_14
*1259 FILLER_0_38_169
*1260 FILLER_0_38_18
*1261 FILLER_0_38_194
*1262 FILLER_0_38_197
*1263 FILLER_0_38_209
*1264 FILLER_0_38_217
*1265 FILLER_0_38_22
*1266 FILLER_0_38_244
*1267 FILLER_0_38_273
*1268 FILLER_0_38_3
*1269 FILLER_0_38_32
*1270 FILLER_0_38_335
*1271 FILLER_0_38_349
*1272 FILLER_0_38_38
*1273 FILLER_0_38_42
*1274 FILLER_0_38_46
*1275 FILLER_0_38_50
*1276 FILLER_0_38_54
*1277 FILLER_0_38_57
*1278 FILLER_0_38_62
*1279 FILLER_0_38_66
*1280 FILLER_0_38_70
*1281 FILLER_0_38_74
*1282 FILLER_0_38_78
*1283 FILLER_0_38_88
*1284 FILLER_0_38_94
*1285 FILLER_0_38_98
*1286 FILLER_0_3_105
*1287 FILLER_0_3_111
*1288 FILLER_0_3_113
*1289 FILLER_0_3_125
*1290 FILLER_0_3_137
*1291 FILLER_0_3_149
*1292 FILLER_0_3_15
*1293 FILLER_0_3_161
*1294 FILLER_0_3_167
*1295 FILLER_0_3_169
*1296 FILLER_0_3_181
*1297 FILLER_0_3_193
*1298 FILLER_0_3_205
*1299 FILLER_0_3_217
*1300 FILLER_0_3_223
*1301 FILLER_0_3_225
*1302 FILLER_0_3_237
*1303 FILLER_0_3_249
*1304 FILLER_0_3_261
*1305 FILLER_0_3_27
*1306 FILLER_0_3_273
*1307 FILLER_0_3_279
*1308 FILLER_0_3_281
*1309 FILLER_0_3_293
*1310 FILLER_0_3_3
*1311 FILLER_0_3_305
*1312 FILLER_0_3_317
*1313 FILLER_0_3_329
*1314 FILLER_0_3_335
*1315 FILLER_0_3_337
*1316 FILLER_0_3_349
*1317 FILLER_0_3_39
*1318 FILLER_0_3_51
*1319 FILLER_0_3_55
*1320 FILLER_0_3_57
*1321 FILLER_0_3_69
*1322 FILLER_0_3_81
*1323 FILLER_0_3_93
*1324 FILLER_0_4_109
*1325 FILLER_0_4_121
*1326 FILLER_0_4_133
*1327 FILLER_0_4_139
*1328 FILLER_0_4_141
*1329 FILLER_0_4_15
*1330 FILLER_0_4_153
*1331 FILLER_0_4_165
*1332 FILLER_0_4_177
*1333 FILLER_0_4_189
*1334 FILLER_0_4_195
*1335 FILLER_0_4_197
*1336 FILLER_0_4_209
*1337 FILLER_0_4_221
*1338 FILLER_0_4_233
*1339 FILLER_0_4_245
*1340 FILLER_0_4_251
*1341 FILLER_0_4_253
*1342 FILLER_0_4_265
*1343 FILLER_0_4_27
*1344 FILLER_0_4_277
*1345 FILLER_0_4_289
*1346 FILLER_0_4_29
*1347 FILLER_0_4_3
*1348 FILLER_0_4_301
*1349 FILLER_0_4_307
*1350 FILLER_0_4_309
*1351 FILLER_0_4_321
*1352 FILLER_0_4_333
*1353 FILLER_0_4_345
*1354 FILLER_0_4_41
*1355 FILLER_0_4_53
*1356 FILLER_0_4_65
*1357 FILLER_0_4_77
*1358 FILLER_0_4_83
*1359 FILLER_0_4_85
*1360 FILLER_0_4_97
*1361 FILLER_0_5_105
*1362 FILLER_0_5_111
*1363 FILLER_0_5_113
*1364 FILLER_0_5_125
*1365 FILLER_0_5_137
*1366 FILLER_0_5_149
*1367 FILLER_0_5_15
*1368 FILLER_0_5_161
*1369 FILLER_0_5_167
*1370 FILLER_0_5_169
*1371 FILLER_0_5_181
*1372 FILLER_0_5_193
*1373 FILLER_0_5_205
*1374 FILLER_0_5_217
*1375 FILLER_0_5_223
*1376 FILLER_0_5_225
*1377 FILLER_0_5_237
*1378 FILLER_0_5_249
*1379 FILLER_0_5_261
*1380 FILLER_0_5_27
*1381 FILLER_0_5_273
*1382 FILLER_0_5_279
*1383 FILLER_0_5_281
*1384 FILLER_0_5_293
*1385 FILLER_0_5_3
*1386 FILLER_0_5_305
*1387 FILLER_0_5_317
*1388 FILLER_0_5_329
*1389 FILLER_0_5_335
*1390 FILLER_0_5_337
*1391 FILLER_0_5_349
*1392 FILLER_0_5_39
*1393 FILLER_0_5_51
*1394 FILLER_0_5_55
*1395 FILLER_0_5_57
*1396 FILLER_0_5_69
*1397 FILLER_0_5_81
*1398 FILLER_0_5_93
*1399 FILLER_0_6_109
*1400 FILLER_0_6_121
*1401 FILLER_0_6_133
*1402 FILLER_0_6_139
*1403 FILLER_0_6_141
*1404 FILLER_0_6_15
*1405 FILLER_0_6_153
*1406 FILLER_0_6_165
*1407 FILLER_0_6_177
*1408 FILLER_0_6_189
*1409 FILLER_0_6_195
*1410 FILLER_0_6_197
*1411 FILLER_0_6_209
*1412 FILLER_0_6_221
*1413 FILLER_0_6_233
*1414 FILLER_0_6_245
*1415 FILLER_0_6_251
*1416 FILLER_0_6_253
*1417 FILLER_0_6_265
*1418 FILLER_0_6_27
*1419 FILLER_0_6_277
*1420 FILLER_0_6_289
*1421 FILLER_0_6_29
*1422 FILLER_0_6_3
*1423 FILLER_0_6_301
*1424 FILLER_0_6_307
*1425 FILLER_0_6_309
*1426 FILLER_0_6_321
*1427 FILLER_0_6_333
*1428 FILLER_0_6_345
*1429 FILLER_0_6_41
*1430 FILLER_0_6_53
*1431 FILLER_0_6_65
*1432 FILLER_0_6_77
*1433 FILLER_0_6_83
*1434 FILLER_0_6_85
*1435 FILLER_0_6_97
*1436 FILLER_0_7_105
*1437 FILLER_0_7_111
*1438 FILLER_0_7_113
*1439 FILLER_0_7_125
*1440 FILLER_0_7_137
*1441 FILLER_0_7_149
*1442 FILLER_0_7_15
*1443 FILLER_0_7_161
*1444 FILLER_0_7_167
*1445 FILLER_0_7_169
*1446 FILLER_0_7_181
*1447 FILLER_0_7_193
*1448 FILLER_0_7_205
*1449 FILLER_0_7_217
*1450 FILLER_0_7_223
*1451 FILLER_0_7_225
*1452 FILLER_0_7_237
*1453 FILLER_0_7_249
*1454 FILLER_0_7_261
*1455 FILLER_0_7_27
*1456 FILLER_0_7_273
*1457 FILLER_0_7_279
*1458 FILLER_0_7_281
*1459 FILLER_0_7_293
*1460 FILLER_0_7_3
*1461 FILLER_0_7_305
*1462 FILLER_0_7_317
*1463 FILLER_0_7_329
*1464 FILLER_0_7_335
*1465 FILLER_0_7_337
*1466 FILLER_0_7_349
*1467 FILLER_0_7_39
*1468 FILLER_0_7_51
*1469 FILLER_0_7_55
*1470 FILLER_0_7_57
*1471 FILLER_0_7_69
*1472 FILLER_0_7_81
*1473 FILLER_0_7_93
*1474 FILLER_0_8_109
*1475 FILLER_0_8_121
*1476 FILLER_0_8_133
*1477 FILLER_0_8_139
*1478 FILLER_0_8_141
*1479 FILLER_0_8_15
*1480 FILLER_0_8_153
*1481 FILLER_0_8_165
*1482 FILLER_0_8_177