*SPEF "ieee 1481-1999"
*DESIGN "tt_um_morningjava_top"
*DATE "11:11:11 Fri 11 11, 1111"
*VENDOR "OpenRCX"
*PROGRAM "Parallel Extraction"
*VERSION "1.0"
*DESIGN_FLOW "NAME_SCOPE LOCAL" "PIN_CAP NONE"
*DIVIDER /
*DELIMITER :
*BUS_DELIMITER []
*T_UNIT 1 NS
*C_UNIT 1 PF
*R_UNIT 1 OHM
*L_UNIT 1 HENRY

*NAME_MAP
*3 clk
*4 ena
*5 rst_n
*6 ui_in[0]
*7 ui_in[1]
*8 ui_in[2]
*9 ui_in[3]
*10 ui_in[4]
*11 ui_in[5]
*12 ui_in[6]
*13 ui_in[7]
*14 uio_in[0]
*15 uio_in[1]
*16 uio_in[2]
*17 uio_in[3]
*18 uio_in[4]
*19 uio_in[5]
*20 uio_in[6]
*21 uio_in[7]
*22 net19
*23 net20
*24 net21
*25 net22
*26 net23
*27 net24
*28 net25
*29 net26
*30 net27
*31 net28
*32 net29
*33 net30
*34 net31
*35 net32
*36 net33
*37 net34
*38 uo_out[0]
*39 uo_out[1]
*40 uo_out[2]
*41 uo_out[3]
*42 net35
*43 net36
*44 net37
*45 net38
*46 _0000_
*47 _0001_
*48 _0002_
*49 _0003_
*50 _0004_
*51 _0005_
*52 _0006_
*53 _0007_
*54 _0008_
*55 _0009_
*56 _0010_
*57 _0011_
*58 _0012_
*59 _0013_
*60 _0014_
*61 _0015_
*62 _0016_
*63 _0017_
*64 _0018_
*65 _0019_
*66 _0020_
*67 _0021_
*68 _0022_
*69 _0023_
*70 _0024_
*71 _0025_
*72 _0026_
*73 _0027_
*74 _0028_
*75 _0029_
*76 _0030_
*77 _0031_
*78 _0032_
*79 _0033_
*80 _0034_
*81 _0035_
*82 _0036_
*83 _0037_
*84 _0038_
*85 _0039_
*86 _0040_
*87 _0041_
*88 _0042_
*89 _0043_
*90 _0044_
*91 _0045_
*92 _0046_
*93 _0047_
*94 _0048_
*95 _0049_
*96 _0050_
*97 _0051_
*98 _0052_
*99 _0053_
*100 _0054_
*101 _0055_
*102 _0056_
*103 _0057_
*104 _0058_
*105 _0059_
*106 _0060_
*107 _0061_
*108 _0062_
*109 _0063_
*110 _0064_
*111 _0065_
*112 _0066_
*113 _0067_
*114 _0068_
*115 _0069_
*116 _0070_
*117 _0071_
*118 _0072_
*119 _0073_
*120 _0074_
*121 _0075_
*122 _0076_
*123 _0077_
*124 _0078_
*125 _0079_
*126 _0080_
*127 _0081_
*128 _0082_
*129 _0083_
*130 _0084_
*131 _0085_
*132 _0086_
*133 _0087_
*134 _0088_
*135 _0089_
*136 _0090_
*137 _0091_
*138 _0092_
*139 _0093_
*140 _0094_
*141 _0095_
*142 _0096_
*143 _0097_
*144 _0098_
*145 _0099_
*146 _0100_
*147 _0101_
*148 _0102_
*149 _0103_
*150 _0104_
*151 _0105_
*152 _0106_
*153 _0107_
*154 _0108_
*155 _0109_
*156 _0110_
*157 _0111_
*158 _0112_
*159 _0113_
*160 _0114_
*161 _0115_
*162 _0116_
*163 _0117_
*164 _0118_
*165 _0119_
*166 _0120_
*167 _0121_
*168 _0122_
*169 _0123_
*170 _0124_
*171 _0125_
*172 _0126_
*173 _0127_
*174 _0128_
*175 _0129_
*176 _0130_
*177 _0131_
*178 _0132_
*179 _0133_
*180 _0134_
*181 _0135_
*182 _0136_
*183 _0137_
*184 _0138_
*185 _0139_
*186 _0140_
*187 _0141_
*188 _0142_
*189 _0143_
*190 _0144_
*191 _0145_
*192 _0146_
*193 _0147_
*194 _0148_
*195 _0149_
*196 _0150_
*197 _0151_
*198 _0152_
*199 _0153_
*200 _0154_
*201 _0155_
*202 _0156_
*203 _0157_
*204 _0158_
*205 _0159_
*206 _0160_
*207 _0161_
*208 _0162_
*209 _0163_
*210 _0164_
*211 _0165_
*212 _0166_
*213 _0167_
*214 _0168_
*215 _0169_
*216 _0170_
*217 _0171_
*218 _0172_
*219 _0173_
*220 _0174_
*221 _0175_
*222 _0176_
*223 _0177_
*224 _0178_
*225 _0179_
*226 _0180_
*227 _0181_
*228 _0182_
*229 _0183_
*230 _0184_
*231 _0185_
*232 _0186_
*233 _0187_
*234 _0188_
*235 _0189_
*236 _0190_
*237 _0191_
*238 _0192_
*239 _0193_
*240 _0194_
*241 _0195_
*242 _0196_
*243 _0197_
*244 _0198_
*245 _0199_
*246 _0200_
*247 _0201_
*248 _0202_
*249 _0203_
*250 _0204_
*251 _0205_
*252 _0206_
*253 _0207_
*254 _0208_
*255 _0209_
*256 _0210_
*257 _0211_
*258 _0212_
*259 _0213_
*260 _0214_
*261 _0215_
*262 _0216_
*263 _0217_
*264 _0218_
*265 _0219_
*266 _0220_
*267 _0221_
*268 _0222_
*269 _0223_
*270 _0224_
*271 _0225_
*272 _0226_
*273 _0227_
*274 _0228_
*275 _0229_
*276 _0230_
*277 _0231_
*278 _0232_
*279 _0233_
*280 _0234_
*281 _0235_
*282 _0236_
*283 _0237_
*284 _0238_
*285 _0239_
*286 _0240_
*287 _0241_
*288 _0242_
*289 _0243_
*290 _0244_
*291 _0245_
*292 _0246_
*293 _0247_
*294 _0248_
*295 _0249_
*296 _0250_
*297 _0251_
*298 _0252_
*299 _0253_
*300 _0254_
*301 _0255_
*302 _0256_
*303 _0257_
*304 _0258_
*305 _0259_
*306 _0260_
*307 _0261_
*308 _0262_
*309 _0263_
*310 _0264_
*311 _0265_
*312 _0266_
*313 _0267_
*314 _0268_
*315 _0269_
*316 _0270_
*317 _0271_
*318 _0272_
*319 _0273_
*320 _0274_
*321 _0275_
*322 _0276_
*323 _0277_
*324 _0278_
*325 _0279_
*326 _0280_
*327 _0281_
*328 _0282_
*329 _0283_
*330 _0284_
*331 _0285_
*332 _0286_
*333 _0287_
*334 _0288_
*335 _0289_
*336 _0290_
*337 _0291_
*338 _0292_
*339 _0293_
*340 _0294_
*341 _0295_
*342 _0296_
*343 _0297_
*344 _0298_
*345 _0299_
*346 _0300_
*347 _0301_
*348 _0302_
*349 _0303_
*350 _0304_
*351 _0305_
*352 _0306_
*353 _0307_
*354 _0308_
*355 _0309_
*356 _0310_
*357 _0311_
*358 _0312_
*359 _0313_
*360 _0314_
*361 _0315_
*362 _0316_
*363 _0317_
*364 _0318_
*365 _0319_
*366 _0320_
*367 _0321_
*368 _0322_
*369 _0323_
*370 _0324_
*371 _0325_
*372 _0326_
*373 _0327_
*374 _0328_
*375 _0329_
*376 _0330_
*377 _0331_
*378 _0332_
*379 _0333_
*380 _0334_
*381 _0335_
*382 _0336_
*383 _0337_
*384 _0338_
*385 _0339_
*386 _0340_
*387 _0341_
*388 _0342_
*389 _0343_
*390 _0344_
*391 _0345_
*392 _0346_
*393 _0347_
*394 _0348_
*395 _0349_
*396 _0350_
*397 _0351_
*398 _0352_
*399 _0353_
*400 _0354_
*401 _0355_
*402 _0356_
*403 _0357_
*404 _0358_
*405 _0359_
*406 _0360_
*407 _0361_
*408 _0362_
*409 _0363_
*410 _0364_
*411 _0365_
*412 _0366_
*413 _0367_
*414 _0368_
*415 _0369_
*416 _0370_
*417 _0371_
*418 _0372_
*419 _0373_
*420 _0374_
*421 _0375_
*422 _0376_
*423 _0377_
*424 _0378_
*425 _0379_
*426 _0380_
*427 _0381_
*428 _0382_
*429 _0383_
*430 _0384_
*431 _0385_
*432 _0386_
*433 _0387_
*434 _0388_
*435 _0389_
*436 _0390_
*437 _0391_
*438 _0392_
*439 _0393_
*440 _0394_
*441 _0395_
*442 _0396_
*443 _0397_
*444 _0398_
*445 _0399_
*446 _0400_
*447 _0401_
*448 _0402_
*449 _0403_
*450 _0404_
*451 _0405_
*452 _0406_
*453 _0407_
*454 _0408_
*455 _0409_
*456 _0410_
*457 _0411_
*458 _0412_
*459 _0413_
*460 _0414_
*461 _0415_
*462 _0416_
*463 _0417_
*464 _0418_
*465 _0419_
*466 _0420_
*467 _0421_
*468 _0422_
*469 _0423_
*470 _0424_
*471 _0425_
*472 _0426_
*473 _0427_
*474 _0428_
*475 _0429_
*476 _0430_
*477 _0431_
*478 _0432_
*479 _0433_
*480 _0434_
*481 _0435_
*482 _0436_
*483 _0437_
*484 _0438_
*485 _0439_
*486 _0440_
*487 _0441_
*488 _0442_
*489 _0443_
*490 _0444_
*491 _0445_
*492 _0446_
*493 _0447_
*494 _0448_
*495 _0449_
*496 _0450_
*497 _0451_
*498 _0452_
*499 _0453_
*500 _0454_
*501 _0455_
*502 _0456_
*503 _0457_
*504 _0458_
*505 _0459_
*506 _0460_
*507 _0461_
*508 _0462_
*509 _0463_
*510 _0464_
*511 _0465_
*512 _0466_
*513 _0467_
*514 _0468_
*515 _0469_
*516 _0470_
*517 _0471_
*518 _0472_
*519 _0473_
*520 _0474_
*521 _0475_
*522 _0476_
*523 _0477_
*524 _0478_
*525 _0479_
*526 _0480_
*527 _0481_
*528 _0482_
*529 _0483_
*530 _0484_
*531 _0485_
*532 _0486_
*533 _0487_
*534 _0488_
*535 _0489_
*536 _0490_
*537 _0491_
*538 _0492_
*539 _0493_
*540 _0494_
*541 _0495_
*542 _0496_
*543 _0497_
*544 _0498_
*545 _0499_
*546 _0500_
*547 _0501_
*548 _0502_
*549 _0503_
*550 _0504_
*551 _0505_
*552 _0506_
*553 _0507_
*554 _0508_
*555 _0509_
*556 _0510_
*557 _0511_
*558 _0512_
*559 _0513_
*560 _0514_
*561 _0515_
*562 _0516_
*563 _0517_
*564 _0518_
*565 _0519_
*566 _0520_
*567 _0521_
*568 _0522_
*569 _0523_
*570 _0524_
*571 _0525_
*572 _0526_
*573 _0527_
*574 _0528_
*575 _0529_
*576 _0530_
*577 _0531_
*578 _0532_
*579 _0533_
*580 _0534_
*581 _0535_
*582 _0536_
*583 _0537_
*584 _0538_
*585 _0539_
*586 _0540_
*587 _0541_
*588 _0542_
*589 _0543_
*590 _0544_
*591 _0545_
*592 _0546_
*593 _0547_
*594 _0548_
*595 _0549_
*596 _0550_
*597 _0551_
*598 _0552_
*599 _0553_
*600 _0554_
*601 _0555_
*602 _0556_
*603 _0557_
*604 _0558_
*605 _0559_
*606 _0560_
*607 _0561_
*608 _0562_
*609 _0563_
*610 _0564_
*611 _0565_
*612 _0566_
*613 _0567_
*614 _0568_
*615 _0569_
*616 _0570_
*617 _0571_
*618 _0572_
*619 _0573_
*620 _0574_
*621 _0575_
*622 _0576_
*623 _0577_
*624 _0578_
*625 _0579_
*626 _0580_
*627 _0581_
*628 _0582_
*629 _0583_
*630 _0584_
*631 _0585_
*632 _0586_
*633 _0587_
*634 _0588_
*635 _0589_
*636 _0590_
*637 _0591_
*638 _0592_
*639 _0593_
*640 _0594_
*641 _0595_
*642 _0596_
*643 _0597_
*644 _0598_
*645 _0599_
*646 _0600_
*647 _0601_
*648 _0602_
*649 _0603_
*650 _0604_
*651 _0605_
*652 _0606_
*653 _0607_
*654 _0608_
*655 _0609_
*656 _0610_
*657 _0611_
*658 _0612_
*659 _0613_
*660 _0614_
*661 _0615_
*662 _0616_
*663 _0617_
*664 _0618_
*665 _0619_
*666 _0620_
*667 _0621_
*668 _0622_
*669 _0623_
*670 _0624_
*671 _0625_
*672 _0626_
*673 _0627_
*674 _0628_
*675 _0629_
*676 _0630_
*677 _0631_
*678 _0632_
*679 _0633_
*680 _0634_
*681 _0635_
*682 _0636_
*683 _0637_
*684 _0638_
*685 _0639_
*686 _0640_
*687 _0641_
*688 _0642_
*689 _0643_
*690 _0644_
*691 _0645_
*692 _0646_
*693 _0647_
*694 _0648_
*695 _0649_
*696 _0650_
*697 _0651_
*698 _0652_
*699 _0653_
*700 _0654_
*701 _0655_
*702 _0656_
*703 _0657_
*704 chiptune_inst\.audio_pwm_inst\.accum\[0\]
*705 chiptune_inst\.audio_pwm_inst\.accum\[1\]
*706 chiptune_inst\.audio_pwm_inst\.accum\[2\]
*707 chiptune_inst\.audio_pwm_inst\.accum\[3\]
*708 chiptune_inst\.audio_pwm_inst\.accum\[4\]
*709 chiptune_inst\.frame_inst\.divider
*710 chiptune_inst\.frame_inst\.enable_120hz
*711 chiptune_inst\.frame_inst\.enable_240hz
*712 chiptune_inst\.frame_inst\.prescaler\[0\]
*713 chiptune_inst\.frame_inst\.prescaler\[10\]
*714 chiptune_inst\.frame_inst\.prescaler\[11\]
*715 chiptune_inst\.frame_inst\.prescaler\[12\]
*716 chiptune_inst\.frame_inst\.prescaler\[1\]
*717 chiptune_inst\.frame_inst\.prescaler\[2\]
*718 chiptune_inst\.frame_inst\.prescaler\[3\]
*719 chiptune_inst\.frame_inst\.prescaler\[4\]
*720 chiptune_inst\.frame_inst\.prescaler\[5\]
*721 chiptune_inst\.frame_inst\.prescaler\[6\]
*722 chiptune_inst\.frame_inst\.prescaler\[7\]
*723 chiptune_inst\.frame_inst\.prescaler\[8\]
*724 chiptune_inst\.frame_inst\.prescaler\[9\]
*725 chiptune_inst\.prescaler_inst\.blink
*726 chiptune_inst\.prescaler_inst\.clk
*727 chiptune_inst\.prescaler_inst\.clk_uart
*728 chiptune_inst\.prescaler_inst\.count_2hz\[0\]
*729 chiptune_inst\.prescaler_inst\.count_2hz\[10\]
*730 chiptune_inst\.prescaler_inst\.count_2hz\[1\]
*731 chiptune_inst\.prescaler_inst\.count_2hz\[2\]
*732 chiptune_inst\.prescaler_inst\.count_2hz\[3\]
*733 chiptune_inst\.prescaler_inst\.count_2hz\[4\]
*734 chiptune_inst\.prescaler_inst\.count_2hz\[5\]
*735 chiptune_inst\.prescaler_inst\.count_2hz\[6\]
*736 chiptune_inst\.prescaler_inst\.count_2hz\[7\]
*737 chiptune_inst\.prescaler_inst\.count_2hz\[8\]
*738 chiptune_inst\.prescaler_inst\.count_2hz\[9\]
*739 chiptune_inst\.prescaler_inst\.count_4khz\[0\]
*740 chiptune_inst\.prescaler_inst\.count_4khz\[10\]
*741 chiptune_inst\.prescaler_inst\.count_4khz\[11\]
*742 chiptune_inst\.prescaler_inst\.count_4khz\[1\]
*743 chiptune_inst\.prescaler_inst\.count_4khz\[2\]
*744 chiptune_inst\.prescaler_inst\.count_4khz\[3\]
*745 chiptune_inst\.prescaler_inst\.count_4khz\[4\]
*746 chiptune_inst\.prescaler_inst\.count_4khz\[5\]
*747 chiptune_inst\.prescaler_inst\.count_4khz\[6\]
*748 chiptune_inst\.prescaler_inst\.count_4khz\[7\]
*749 chiptune_inst\.prescaler_inst\.count_4khz\[8\]
*750 chiptune_inst\.prescaler_inst\.count_4khz\[9\]
*751 chiptune_inst\.prescaler_inst\.count_baud\[0\]
*752 chiptune_inst\.prescaler_inst\.count_baud\[1\]
*753 chiptune_inst\.prescaler_inst\.count_baud\[2\]
*754 chiptune_inst\.prescaler_inst\.count_baud\[3\]
*755 chiptune_inst\.prescaler_inst\.count_baud\[4\]
*756 chiptune_inst\.prescaler_inst\.count_baud\[5\]
*757 chiptune_inst\.prescaler_inst\.count_baud\[6\]
*758 chiptune_inst\.prescaler_inst\.count_baud\[7\]
*759 chiptune_inst\.prescaler_inst\.count_clk\[0\]
*760 chiptune_inst\.prescaler_inst\.count_clk\[1\]
*761 chiptune_inst\.prescaler_inst\.count_clk\[2\]
*762 chiptune_inst\.prescaler_inst\.count_link\[0\]
*763 chiptune_inst\.prescaler_inst\.count_link\[1\]
*764 chiptune_inst\.prescaler_inst\.count_link\[2\]
*765 chiptune_inst\.prescaler_inst\.count_link\[3\]
*766 chiptune_inst\.prescaler_inst\.count_link\[4\]
*767 chiptune_inst\.prescaler_inst\.count_link\[5\]
*768 chiptune_inst\.prescaler_inst\.count_link\[6\]
*769 chiptune_inst\.prescaler_inst\.count_link\[7\]
*770 chiptune_inst\.prescaler_inst\.event_2hz
*771 chiptune_inst\.prescaler_inst\.event_4khz
*772 chiptune_inst\.prescaler_inst\.link
*773 chiptune_inst\.prescaler_inst\.rx_meta
*774 chiptune_inst\.prescaler_inst\.sdi
*775 chiptune_inst\.prescaler_inst\.sdi_delay\[0\]
*776 chiptune_inst\.prescaler_inst\.sdi_delay\[1\]
*777 chiptune_inst\.rectangle_inst\.decay_counter\[0\]
*778 chiptune_inst\.rectangle_inst\.decay_counter\[1\]
*779 chiptune_inst\.rectangle_inst\.decay_counter\[2\]
*780 chiptune_inst\.rectangle_inst\.decay_counter\[3\]
*781 chiptune_inst\.rectangle_inst\.decay_disable
*782 chiptune_inst\.rectangle_inst\.envelope_counter\[0\]
*783 chiptune_inst\.rectangle_inst\.envelope_counter\[1\]
*784 chiptune_inst\.rectangle_inst\.envelope_counter\[2\]
*785 chiptune_inst\.rectangle_inst\.envelope_counter\[3\]
*786 chiptune_inst\.rectangle_inst\.index\[0\]
*787 chiptune_inst\.rectangle_inst\.index\[1\]
*788 chiptune_inst\.rectangle_inst\.index\[2\]
*789 chiptune_inst\.rectangle_inst\.length_counter\[0\]
*790 chiptune_inst\.rectangle_inst\.length_counter\[1\]
*791 chiptune_inst\.rectangle_inst\.length_counter\[2\]
*792 chiptune_inst\.rectangle_inst\.length_counter\[3\]
*793 chiptune_inst\.rectangle_inst\.length_counter\[4\]
*794 chiptune_inst\.rectangle_inst\.length_counter\[5\]
*795 chiptune_inst\.rectangle_inst\.length_counter\[6\]
*796 chiptune_inst\.rectangle_inst\.length_counter\[7\]
*797 chiptune_inst\.rectangle_inst\.length_disable
*798 chiptune_inst\.rectangle_inst\.preset_timer\[0\]
*799 chiptune_inst\.rectangle_inst\.preset_timer\[10\]
*800 chiptune_inst\.rectangle_inst\.preset_timer\[1\]
*801 chiptune_inst\.rectangle_inst\.preset_timer\[2\]
*802 chiptune_inst\.rectangle_inst\.preset_timer\[3\]
*803 chiptune_inst\.rectangle_inst\.preset_timer\[4\]
*804 chiptune_inst\.rectangle_inst\.preset_timer\[5\]
*805 chiptune_inst\.rectangle_inst\.preset_timer\[6\]
*806 chiptune_inst\.rectangle_inst\.preset_timer\[7\]
*807 chiptune_inst\.rectangle_inst\.preset_timer\[8\]
*808 chiptune_inst\.rectangle_inst\.preset_timer\[9\]
*809 chiptune_inst\.rectangle_inst\.programmable_timer\[0\]
*810 chiptune_inst\.rectangle_inst\.programmable_timer\[10\]
*811 chiptune_inst\.rectangle_inst\.programmable_timer\[1\]
*812 chiptune_inst\.rectangle_inst\.programmable_timer\[2\]
*813 chiptune_inst\.rectangle_inst\.programmable_timer\[3\]
*814 chiptune_inst\.rectangle_inst\.programmable_timer\[4\]
*815 chiptune_inst\.rectangle_inst\.programmable_timer\[5\]
*816 chiptune_inst\.rectangle_inst\.programmable_timer\[6\]
*817 chiptune_inst\.rectangle_inst\.programmable_timer\[7\]
*818 chiptune_inst\.rectangle_inst\.programmable_timer\[8\]
*819 chiptune_inst\.rectangle_inst\.programmable_timer\[9\]
*820 chiptune_inst\.rectangle_inst\.pulse_out\[0\]
*821 chiptune_inst\.rectangle_inst\.pulse_out\[1\]
*822 chiptune_inst\.rectangle_inst\.pulse_out\[2\]
*823 chiptune_inst\.rectangle_inst\.pulse_out\[3\]
*824 chiptune_inst\.rectangle_inst\.reg_delay\[0\]
*825 chiptune_inst\.rectangle_inst\.reg_delay\[1\]
*826 chiptune_inst\.rectangle_inst\.reload
*827 chiptune_inst\.rectangle_inst\.sweep_counter\[0\]
*828 chiptune_inst\.rectangle_inst\.sweep_counter\[1\]
*829 chiptune_inst\.rectangle_inst\.sweep_counter\[2\]
*830 chiptune_inst\.rectangle_inst\.sweep_decrement
*831 chiptune_inst\.rectangle_inst\.sweep_enable
*832 chiptune_inst\.rectangle_inst\.timer_event
*833 chiptune_inst\.reset
*834 chiptune_inst\.uart_inst\.baud_count\[0\]
*835 chiptune_inst\.uart_inst\.baud_count\[1\]
*836 chiptune_inst\.uart_inst\.baud_count\[2\]
*837 chiptune_inst\.uart_inst\.bit_count\[0\]
*838 chiptune_inst\.uart_inst\.bit_count\[1\]
*839 chiptune_inst\.uart_inst\.bit_count\[2\]
*840 chiptune_inst\.uart_inst\.bit_count\[3\]
*841 chiptune_inst\.uart_inst\.hold\[0\]
*842 chiptune_inst\.uart_inst\.hold\[1\]
*843 chiptune_inst\.uart_inst\.hold\[2\]
*844 chiptune_inst\.uart_inst\.hold\[3\]
*845 chiptune_inst\.uart_inst\.reg_4000\[0\]
*846 chiptune_inst\.uart_inst\.reg_4000\[1\]
*847 chiptune_inst\.uart_inst\.reg_4000\[2\]
*848 chiptune_inst\.uart_inst\.reg_4000\[3\]
*849 chiptune_inst\.uart_inst\.reg_4000\[6\]
*850 chiptune_inst\.uart_inst\.reg_4000\[7\]
*851 chiptune_inst\.uart_inst\.reg_4001\[0\]
*852 chiptune_inst\.uart_inst\.reg_4001\[1\]
*853 chiptune_inst\.uart_inst\.reg_4001\[2\]
*854 chiptune_inst\.uart_inst\.reg_4001\[4\]
*855 chiptune_inst\.uart_inst\.reg_4001\[5\]
*856 chiptune_inst\.uart_inst\.reg_4001\[6\]
*857 chiptune_inst\.uart_inst\.reg_4002\[0\]
*858 chiptune_inst\.uart_inst\.reg_4002\[1\]
*859 chiptune_inst\.uart_inst\.reg_4002\[2\]
*860 chiptune_inst\.uart_inst\.reg_4002\[3\]
*861 chiptune_inst\.uart_inst\.reg_4002\[4\]
*862 chiptune_inst\.uart_inst\.reg_4002\[5\]
*863 chiptune_inst\.uart_inst\.reg_4002\[6\]
*864 chiptune_inst\.uart_inst\.reg_4002\[7\]
*865 chiptune_inst\.uart_inst\.reg_4003\[0\]
*866 chiptune_inst\.uart_inst\.reg_4003\[1\]
*867 chiptune_inst\.uart_inst\.reg_4003\[2\]
*868 chiptune_inst\.uart_inst\.reg_4003\[3\]
*869 chiptune_inst\.uart_inst\.reg_4003\[4\]
*870 chiptune_inst\.uart_inst\.reg_4003\[5\]
*871 chiptune_inst\.uart_inst\.reg_4003\[6\]
*872 chiptune_inst\.uart_inst\.reg_4003\[7\]
*873 chiptune_inst\.uart_inst\.reg_change
*874 chiptune_inst\.uart_inst\.rx_meta
*875 chiptune_inst\.uart_inst\.sck
*876 chiptune_inst\.uart_inst\.sdi
*877 chiptune_inst\.uart_inst\.shift\[0\]
*878 chiptune_inst\.uart_inst\.shift\[1\]
*879 chiptune_inst\.uart_inst\.shift\[2\]
*880 chiptune_inst\.uart_inst\.shift\[3\]
*881 chiptune_inst\.uart_inst\.shift\[4\]
*882 chiptune_inst\.uart_inst\.shift\[5\]
*883 chiptune_inst\.uart_inst\.shift\[6\]
*884 chiptune_inst\.uart_inst\.shift\[7\]
*885 chiptune_inst\.uart_inst\.shift\[8\]
*886 chiptune_inst\.uart_inst\.shift\[9\]
*887 clknet_0_clk
*888 clknet_2_0__leaf_clk
*889 clknet_2_1__leaf_clk
*890 clknet_2_2__leaf_clk
*891 clknet_2_3__leaf_clk
*892 net1
*893 net10
*894 net11
*895 net12
*896 net13
*897 net14
*898 net15
*899 net16
*900 net17
*901 net18
*902 net2
*903 net3
*904 net39
*905 net4
*906 net40
*907 net41
*908 net42
*909 net43
*910 net44
*911 net45
*912 net46
*913 net47
*914 net48
*915 net49
*916 net5
*917 net50
*918 net51
*919 net52
*920 net53
*921 net54
*922 net55
*923 net56
*924 net57
*925 net58
*926 net59
*927 net6
*928 net60
*929 net61
*930 net62
*931 net63
*932 net64
*933 net65
*934 net66
*935 net67
*936 net68
*937 net69
*938 net7
*939 net70
*940 net71
*941 net72
*942 net73
*943 net74
*944 net75
*945 net76
*946 net77
*947 net78
*948 net79
*949 net8
*950 net80
*951 net81
*952 net82
*953 net83
*954 net84
*955 net85
*956 net86
*957 net87
*958 net88
*959 net89
*960 net9
*961 net90
*962 net91
*963 net92
*964 net93
*965 net94
*966 net95
*967 net96
*968 FILLER_0_0_109
*969 FILLER_0_0_113
*970 FILLER_0_0_125
*971 FILLER_0_0_137
*972 FILLER_0_0_141
*973 FILLER_0_0_15
*974 FILLER_0_0_153
*975 FILLER_0_0_165
*976 FILLER_0_0_169
*977 FILLER_0_0_181
*978 FILLER_0_0_193
*979 FILLER_0_0_197
*980 FILLER_0_0_209
*981 FILLER_0_0_221
*982 FILLER_0_0_225
*983 FILLER_0_0_237
*984 FILLER_0_0_249
*985 FILLER_0_0_253
*986 FILLER_0_0_265
*987 FILLER_0_0_27
*988 FILLER_0_0_277
*989 FILLER_0_0_281
*990 FILLER_0_0_29
*991 FILLER_0_0_293
*992 FILLER_0_0_3
*993 FILLER_0_0_305
*994 FILLER_0_0_309
*995 FILLER_0_0_321
*996 FILLER_0_0_333
*997 FILLER_0_0_337
*998 FILLER_0_0_349
*999 FILLER_0_0_361
*1000 FILLER_0_0_365
*1001 FILLER_0_0_377
*1002 FILLER_0_0_389
*1003 FILLER_0_0_393
*1004 FILLER_0_0_405
*1005 FILLER_0_0_41
*1006 FILLER_0_0_417
*1007 FILLER_0_0_421
*1008 FILLER_0_0_433
*1009 FILLER_0_0_445
*1010 FILLER_0_0_449
*1011 FILLER_0_0_461
*1012 FILLER_0_0_473
*1013 FILLER_0_0_477
*1014 FILLER_0_0_489
*1015 FILLER_0_0_501
*1016 FILLER_0_0_505
*1017 FILLER_0_0_517
*1018 FILLER_0_0_529
*1019 FILLER_0_0_53
*1020 FILLER_0_0_533
*1021 FILLER_0_0_545
*1022 FILLER_0_0_557
*1023 FILLER_0_0_561
*1024 FILLER_0_0_57
*1025 FILLER_0_0_573
*1026 FILLER_0_0_585
*1027 FILLER_0_0_589
*1028 FILLER_0_0_601
*1029 FILLER_0_0_613
*1030 FILLER_0_0_617
*1031 FILLER_0_0_629
*1032 FILLER_0_0_641
*1033 FILLER_0_0_645
*1034 FILLER_0_0_657
*1035 FILLER_0_0_669
*1036 FILLER_0_0_673
*1037 FILLER_0_0_685
*1038 FILLER_0_0_69
*1039 FILLER_0_0_697
*1040 FILLER_0_0_701
*1041 FILLER_0_0_713
*1042 FILLER_0_0_81
*1043 FILLER_0_0_85
*1044 FILLER_0_0_97
*1045 FILLER_0_10_109
*1046 FILLER_0_10_121
*1047 FILLER_0_10_133
*1048 FILLER_0_10_139
*1049 FILLER_0_10_141
*1050 FILLER_0_10_15
*1051 FILLER_0_10_153
*1052 FILLER_0_10_165
*1053 FILLER_0_10_177
*1054 FILLER_0_10_189
*1055 FILLER_0_10_195
*1056 FILLER_0_10_197
*1057 FILLER_0_10_209
*1058 FILLER_0_10_221
*1059 FILLER_0_10_233
*1060 FILLER_0_10_245
*1061 FILLER_0_10_251
*1062 FILLER_0_10_253
*1063 FILLER_0_10_265
*1064 FILLER_0_10_27
*1065 FILLER_0_10_277
*1066 FILLER_0_10_289
*1067 FILLER_0_10_29
*1068 FILLER_0_10_3
*1069 FILLER_0_10_301
*1070 FILLER_0_10_307
*1071 FILLER_0_10_309
*1072 FILLER_0_10_321
*1073 FILLER_0_10_333
*1074 FILLER_0_10_345
*1075 FILLER_0_10_357
*1076 FILLER_0_10_363
*1077 FILLER_0_10_365
*1078 FILLER_0_10_377
*1079 FILLER_0_10_389
*1080 FILLER_0_10_401
*1081 FILLER_0_10_41
*1082 FILLER_0_10_413
*1083 FILLER_0_10_419
*1084 FILLER_0_10_421
*1085 FILLER_0_10_433
*1086 FILLER_0_10_445
*1087 FILLER_0_10_457
*1088 FILLER_0_10_469
*1089 FILLER_0_10_475
*1090 FILLER_0_10_477
*1091 FILLER_0_10_489
*1092 FILLER_0_10_501
*1093 FILLER_0_10_513
*1094 FILLER_0_10_525
*1095 FILLER_0_10_53
*1096 FILLER_0_10_531
*1097 FILLER_0_10_533
*1098 FILLER_0_10_545
*1099 FILLER_0_10_557
*1100 FILLER_0_10_569
*1101 FILLER_0_10_581
*1102 FILLER_0_10_587
*1103 FILLER_0_10_589
*1104 FILLER_0_10_601
*1105 FILLER_0_10_613
*1106 FILLER_0_10_625
*1107 FILLER_0_10_637
*1108 FILLER_0_10_643
*1109 FILLER_0_10_645
*1110 FILLER_0_10_65
*1111 FILLER_0_10_657
*1112 FILLER_0_10_669
*1113 FILLER_0_10_681
*1114 FILLER_0_10_693
*1115 FILLER_0_10_699
*1116 FILLER_0_10_701
*1117 FILLER_0_10_713
*1118 FILLER_0_10_77
*1119 FILLER_0_10_83
*1120 FILLER_0_10_85
*1121 FILLER_0_10_97
*1122 FILLER_0_11_105
*1123 FILLER_0_11_111
*1124 FILLER_0_11_113
*1125 FILLER_0_11_125
*1126 FILLER_0_11_137
*1127 FILLER_0_11_149
*1128 FILLER_0_11_15
*1129 FILLER_0_11_161
*1130 FILLER_0_11_167
*1131 FILLER_0_11_169
*1132 FILLER_0_11_181
*1133 FILLER_0_11_193
*1134 FILLER_0_11_205
*1135 FILLER_0_11_217
*1136 FILLER_0_11_223
*1137 FILLER_0_11_225
*1138 FILLER_0_11_237
*1139 FILLER_0_11_249
*1140 FILLER_0_11_261
*1141 FILLER_0_11_27
*1142 FILLER_0_11_273
*1143 FILLER_0_11_279
*1144 FILLER_0_11_281
*1145 FILLER_0_11_293
*1146 FILLER_0_11_3
*1147 FILLER_0_11_305
*1148 FILLER_0_11_317
*1149 FILLER_0_11_329
*1150 FILLER_0_11_335
*1151 FILLER_0_11_337
*1152 FILLER_0_11_349
*1153 FILLER_0_11_361
*1154 FILLER_0_11_373
*1155 FILLER_0_11_385
*1156 FILLER_0_11_39
*1157 FILLER_0_11_391
*1158 FILLER_0_11_393
*1159 FILLER_0_11_405
*1160 FILLER_0_11_417
*1161 FILLER_0_11_429
*1162 FILLER_0_11_441
*1163 FILLER_0_11_447
*1164 FILLER_0_11_449
*1165 FILLER_0_11_461
*1166 FILLER_0_11_473
*1167 FILLER_0_11_485
*1168 FILLER_0_11_497
*1169 FILLER_0_11_503
*1170 FILLER_0_11_505
*1171 FILLER_0_11_51
*1172 FILLER_0_11_517
*1173 FILLER_0_11_529
*1174 FILLER_0_11_541
*1175 FILLER_0_11_55
*1176 FILLER_0_11_553
*1177 FILLER_0_11_559
*1178 FILLER_0_11_561
*1179 FILLER_0_11_57
*1180 FILLER_0_11_573
*1181 FILLER_0_11_585
*1182 FILLER_0_11_597
*1183 FILLER_0_11_609
*1184 FILLER_0_11_615
*1185 FILLER_0_11_617
*1186 FILLER_0_11_629
*1187 FILLER_0_11_641
*1188 FILLER_0_11_653
*1189 FILLER_0_11_665
*1190 FILLER_0_11_671
*1191 FILLER_0_11_673
*1192 FILLER_0_11_685
*1193 FILLER_0_11_69
*1194 FILLER_0_11_697
*1195 FILLER_0_11_709
*1196 FILLER_0_11_81
*1197 FILLER_0_11_93
*1198 FILLER_0_12_109
*1199 FILLER_0_12_121
*1200 FILLER_0_12_133
*1201 FILLER_0_12_139
*1202 FILLER_0_12_141
*1203 FILLER_0_12_15
*1204 FILLER_0_12_153
*1205 FILLER_0_12_165
*1206 FILLER_0_12_177
*1207 FILLER_0_12_189
*1208 FILLER_0_12_195
*1209 FILLER_0_12_197
*1210 FILLER_0_12_209
*1211 FILLER_0_12_221
*1212 FILLER_0_12_233
*1213 FILLER_0_12_245
*1214 FILLER_0_12_251
*1215 FILLER_0_12_253
*1216 FILLER_0_12_265
*1217 FILLER_0_12_27
*1218 FILLER_0_12_277
*1219 FILLER_0_12_289
*1220 FILLER_0_12_29
*1221 FILLER_0_12_3
*1222 FILLER_0_12_301
*1223 FILLER_0_12_307
*1224 FILLER_0_12_309
*1225 FILLER_0_12_321
*1226 FILLER_0_12_333
*1227 FILLER_0_12_345
*1228 FILLER_0_12_357
*1229 FILLER_0_12_363
*1230 FILLER_0_12_365
*1231 FILLER_0_12_377
*1232 FILLER_0_12_389
*1233 FILLER_0_12_401
*1234 FILLER_0_12_41
*1235 FILLER_0_12_413
*1236 FILLER_0_12_419
*1237 FILLER_0_12_421
*1238 FILLER_0_12_433
*1239 FILLER_0_12_445
*1240 FILLER_0_12_457
*1241 FILLER_0_12_469
*1242 FILLER_0_12_475
*1243 FILLER_0_12_477
*1244 FILLER_0_12_489
*1245 FILLER_0_12_501
*1246 FILLER_0_12_513
*1247 FILLER_0_12_525
*1248 FILLER_0_12_53
*1249 FILLER_0_12_531
*1250 FILLER_0_12_533
*1251 FILLER_0_12_545
*1252 FILLER_0_12_557
*1253 FILLER_0_12_569
*1254 FILLER_0_12_581
*1255 FILLER_0_12_587
*1256 FILLER_0_12_589
*1257 FILLER_0_12_601
*1258 FILLER_0_12_613
*1259 FILLER_0_12_625
*1260 FILLER_0_12_637
*1261 FILLER_0_12_643
*1262 FILLER_0_12_645
*1263 FILLER_0_12_65
*1264 FILLER_0_12_657
*1265 FILLER_0_12_669
*1266 FILLER_0_12_681
*1267 FILLER_0_12_693
*1268 FILLER_0_12_699
*1269 FILLER_0_12_701
*1270 FILLER_0_12_713
*1271 FILLER_0_12_77
*1272 FILLER_0_12_83
*1273 FILLER_0_12_85
*1274 FILLER_0_12_97
*1275 FILLER_0_13_105
*1276 FILLER_0_13_111
*1277 FILLER_0_13_113
*1278 FILLER_0_13_125
*1279 FILLER_0_13_137
*1280 FILLER_0_13_149
*1281 FILLER_0_13_15
*1282 FILLER_0_13_161
*1283 FILLER_0_13_167
*1284 FILLER_0_13_169
*1285 FILLER_0_13_181
*1286 FILLER_0_13_193
*1287 FILLER_0_13_205
*1288 FILLER_0_13_217
*1289 FILLER_0_13_223
*1290 FILLER_0_13_225
*1291 FILLER_0_13_237
*1292 FILLER_0_13_249
*1293 FILLER_0_13_261
*1294 FILLER_0_13_27
*1295 FILLER_0_13_273
*1296 FILLER_0_13_279
*1297 FILLER_0_13_281
*1298 FILLER_0_13_293
*1299 FILLER_0_13_3
*1300 FILLER_0_13_305
*1301 FILLER_0_13_317
*1302 FILLER_0_13_329
*1303 FILLER_0_13_335
*1304 FILLER_0_13_337
*1305 FILLER_0_13_349
*1306 FILLER_0_13_361
*1307 FILLER_0_13_373
*1308 FILLER_0_13_385
*1309 FILLER_0_13_39
*1310 FILLER_0_13_391
*1311 FILLER_0_13_393
*1312 FILLER_0_13_405
*1313 FILLER_0_13_417
*1314 FILLER_0_13_429
*1315 FILLER_0_13_441
*1316 FILLER_0_13_447
*1317 FILLER_0_13_449
*1318 FILLER_0_13_461
*1319 FILLER_0_13_473
*1320 FILLER_0_13_485
*1321 FILLER_0_13_497
*1322 FILLER_0_13_503
*1323 FILLER_0_13_505
*1324 FILLER_0_13_51
*1325 FILLER_0_13_517
*1326 FILLER_0_13_529
*1327 FILLER_0_13_541
*1328 FILLER_0_13_55
*1329 FILLER_0_13_553
*1330 FILLER_0_13_559
*1331 FILLER_0_13_561
*1332 FILLER_0_13_57
*1333 FILLER_0_13_573
*1334 FILLER_0_13_585
*1335 FILLER_0_13_597
*1336 FILLER_0_13_609
*1337 FILLER_0_13_615
*1338 FILLER_0_13_617
*1339 FILLER_0_13_629
*1340 FILLER_0_13_641
*1341 FILLER_0_13_653
*1342 FILLER_0_13_665
*1343 FILLER_0_13_671
*1344 FILLER_0_13_673
*1345 FILLER_0_13_685
*1346 FILLER_0_13_69
*1347 FILLER_0_13_697
*1348 FILLER_0_13_709
*1349 FILLER_0_13_81
*1350 FILLER_0_13_93
*1351 FILLER_0_14_109
*1352 FILLER_0_14_121
*1353 FILLER_0_14_133
*1354 FILLER_0_14_139
*1355 FILLER_0_14_141
*1356 FILLER_0_14_15
*1357 FILLER_0_14_153
*1358 FILLER_0_14_165
*1359 FILLER_0_14_177
*1360 FILLER_0_14_189
*1361 FILLER_0_14_195
*1362 FILLER_0_14_197
*1363 FILLER_0_14_209
*1364 FILLER_0_14_221
*1365 FILLER_0_14_233
*1366 FILLER_0_14_245
*1367 FILLER_0_14_251
*1368 FILLER_0_14_253
*1369 FILLER_0_14_265
*1370 FILLER_0_14_27
*1371 FILLER_0_14_277
*1372 FILLER_0_14_289
*1373 FILLER_0_14_29
*1374 FILLER_0_14_3
*1375 FILLER_0_14_301
*1376 FILLER_0_14_307
*1377 FILLER_0_14_309
*1378 FILLER_0_14_321
*1379 FILLER_0_14_333
*1380 FILLER_0_14_345
*1381 FILLER_0_14_357
*1382 FILLER_0_14_363
*1383 FILLER_0_14_365
*1384 FILLER_0_14_377
*1385 FILLER_0_14_389
*1386 FILLER_0_14_401
*1387 FILLER_0_14_41
*1388 FILLER_0_14_413
*1389 FILLER_0_14_419
*1390 FILLER_0_14_421
*1391 FILLER_0_14_433
*1392 FILLER_0_14_445
*1393 FILLER_0_14_457
*1394 FILLER_0_14_469
*1395 FILLER_0_14_475
*1396 FILLER_0_14_477
*1397 FILLER_0_14_489
*1398 FILLER_0_14_501
*1399 FILLER_0_14_513
*1400 FILLER_0_14_525
*1401 FILLER_0_14_53
*1402 FILLER_0_14_531
*1403 FILLER_0_14_533
*1404 FILLER_0_14_545
*1405 FILLER_0_14_557
*1406 FILLER_0_14_569
*1407 FILLER_0_14_581
*1408 FILLER_0_14_587
*1409 FILLER_0_14_589
*1410 FILLER_0_14_601
*1411 FILLER_0_14_613
*1412 FILLER_0_14_625
*1413 FILLER_0_14_637
*1414 FILLER_0_14_643
*1415 FILLER_0_14_645
*1416 FILLER_0_14_65
*1417 FILLER_0_14_657
*1418 FILLER_0_14_669
*1419 FILLER_0_14_681
*1420 FILLER_0_14_693
*1421 FILLER_0_14_699
*1422 FILLER_0_14_701
*1423 FILLER_0_14_713
*1424 FILLER_0_14_77
*1425 FILLER_0_14_83
*1426 FILLER_0_14_85
*1427 FILLER_0_14_97
*1428 FILLER_0_15_105
*1429 FILLER_0_15_111
*1430 FILLER_0_15_113
*1431 FILLER_0_15_125
*1432 FILLER_0_15_137
*1433 FILLER_0_15_149
*1434 FILLER_0_15_15
*1435 FILLER_0_15_161
*1436 FILLER_0_15_167
*1437 FILLER_0_15_169
*1438 FILLER_0_15_181
*1439 FILLER_0_15_193
*1440 FILLER_0_15_205
*1441 FILLER_0_15_217
*1442 FILLER_0_15_223
*1443 FILLER_0_15_225
*1444 FILLER_0_15_237
*1445 FILLER_0_15_249
*1446 FILLER_0_15_261
*1447 FILLER_0_15_27
*1448 FILLER_0_15_273
*1449 FILLER_0_15_279
*1450 FILLER_0_15_281
*1451 FILLER_0_15_293
*1452 FILLER_0_15_3
*1453 FILLER_0_15_305
*1454 FILLER_0_15_317
*1455 FILLER_0_15_329
*1456 FILLER_0_15_335
*1457 FILLER_0_15_337
*1458 FILLER_0_15_349
*1459 FILLER_0_15_361
*1460 FILLER_0_15_373
*1461 FILLER_0_15_385
*1462 FILLER_0_15_39
*1463 FILLER_0_15_391
*1464 FILLER_0_15_393
*1465 FILLER_0_15_405
*1466 FILLER_0_15_417
*1467 FILLER_0_15_429
*1468 FILLER_0_15_441
*1469 FILLER_0_15_447
*1470 FILLER_0_15_449
*1471 FILLER_0_15_461
*1472 FILLER_0_15_473
*1473 FILLER_0_15_485
*1474 FILLER_0_15_497
*1475 FILLER_0_15_503
*1476 FILLER_0_15_505
*1477 FILLER_0_15_51
*1478 FILLER_0_15_517
*1479 FILLER_0_15_529
*1480 FILLER_0_15_541
*1481 FILLER_0_15_55
*1482 FILLER_0_15_553
*1483 FILLER_0_15_559
*1484 FILLER_0_15_561
*1485 FILLER_0_15_57
*1486 FILLER_0_15_573
*1487 FILLER_0_15_585
*1488 FILLER_0_15_597
*1489 FILLER_0_15_609
*1490 FILLER_0_15_615
*1491 FILLER_0_15_617
*1492 FILLER_0_15_629
*1493 FILLER_0_15_641