*SPEF "ieee 1481-1999"
*DESIGN "tt_um_adriannovosel_top"
*DATE "11:11:11 Fri 11 11, 1111"
*VENDOR "OpenRCX"
*PROGRAM "Parallel Extraction"
*VERSION "1.0"
*DESIGN_FLOW "NAME_SCOPE LOCAL" "PIN_CAP NONE"
*DIVIDER /
*DELIMITER :
*BUS_DELIMITER []
*T_UNIT 1 NS
*C_UNIT 1 PF
*R_UNIT 1 OHM
*L_UNIT 1 HENRY

*NAME_MAP
*3 clk
*4 ena
*5 rst_n
*6 ui_in[0]
*7 ui_in[1]
*8 ui_in[2]
*9 ui_in[3]
*10 ui_in[4]
*11 ui_in[5]
*12 ui_in[6]
*13 ui_in[7]
*14 uio_in[0]
*15 uio_in[1]
*16 uio_in[2]
*17 uio_in[3]
*18 uio_in[4]
*19 uio_in[5]
*20 uio_in[6]
*21 uio_in[7]
*22 net16
*23 net17
*24 net18
*25 net19
*26 net20
*27 net21
*28 net22
*29 net23
*30 net24
*31 net25
*32 net26
*33 net27
*34 net28
*35 net29
*36 net30
*37 net31
*38 uo_out[0]
*39 uo_out[1]
*40 uo_out[2]
*41 uo_out[3]
*42 uo_out[4]
*43 uo_out[5]
*44 uo_out[6]
*45 uo_out[7]
*46 _000_
*47 _001_
*48 _002_
*49 _003_
*50 _004_
*51 _005_
*52 _006_
*53 _007_
*54 _008_
*55 _009_
*56 _010_
*57 _011_
*58 _012_
*59 _013_
*60 _014_
*61 _015_
*62 _016_
*63 _017_
*64 _018_
*65 _019_
*66 _020_
*67 _021_
*68 _022_
*69 _023_
*70 _024_
*71 _025_
*72 _026_
*73 _027_
*74 _028_
*75 _029_
*76 _030_
*77 _031_
*78 _032_
*79 _033_
*80 _034_
*81 _035_
*82 _036_
*83 _037_
*84 _038_
*85 _039_
*86 _040_
*87 _041_
*88 _042_
*89 _043_
*90 _044_
*91 _045_
*92 _046_
*93 _047_
*94 _048_
*95 _049_
*96 _050_
*97 _051_
*98 _052_
*99 _053_
*100 _054_
*101 _055_
*102 _056_
*103 _057_
*104 _058_
*105 _059_
*106 _060_
*107 _061_
*108 _062_
*109 _063_
*110 _064_
*111 _065_
*112 _066_
*113 _067_
*114 _068_
*115 _069_
*116 _070_
*117 _071_
*118 _072_
*119 _073_
*120 _074_
*121 _075_
*122 _076_
*123 _077_
*124 _078_
*125 _079_
*126 _080_
*127 _081_
*128 _082_
*129 _083_
*130 _084_
*131 _085_
*132 _086_
*133 _087_
*134 _088_
*135 _089_
*136 _090_
*137 _091_
*138 _092_
*139 _093_
*140 _094_
*141 _095_
*142 _096_
*143 _097_
*144 _098_
*145 _099_
*146 _100_
*147 _101_
*148 _102_
*149 _103_
*150 _104_
*151 _105_
*152 _106_
*153 _107_
*154 _108_
*155 _109_
*156 _110_
*157 _111_
*158 _112_
*159 _113_
*160 _114_
*161 _115_
*162 _116_
*163 _117_
*164 _118_
*165 _119_
*166 _120_
*167 _121_
*168 _122_
*169 _123_
*170 _124_
*171 _125_
*172 _126_
*173 _127_
*174 _128_
*175 _129_
*176 _130_
*177 _131_
*178 _132_
*179 _133_
*180 _134_
*181 _135_
*182 _136_
*183 _137_
*184 _138_
*185 _139_
*186 _140_
*187 _141_
*188 _142_
*189 _143_
*190 _144_
*191 _145_
*192 _146_
*193 _147_
*194 _148_
*195 _149_
*196 _150_
*197 _151_
*198 _152_
*199 _153_
*200 _154_
*201 _155_
*202 _156_
*203 _157_
*204 _158_
*205 _159_
*206 _160_
*207 _161_
*208 _162_
*209 _163_
*210 _164_
*211 _165_
*212 _166_
*213 _167_
*214 _168_
*215 _169_
*216 _170_
*217 _171_
*218 _172_
*219 _173_
*220 _174_
*221 _175_
*222 _176_
*223 _177_
*224 _178_
*225 _179_
*226 _180_
*227 _181_
*228 _182_
*229 _183_
*230 _184_
*231 _185_
*232 _186_
*233 _187_
*234 _188_
*235 _189_
*236 _190_
*237 _191_
*238 _192_
*239 _193_
*240 _194_
*241 _195_
*242 _196_
*243 _197_
*244 _198_
*245 _199_
*246 _200_
*247 _201_
*248 _202_
*249 _203_
*250 _204_
*251 _205_
*252 _206_
*253 _207_
*254 _208_
*255 _209_
*256 _210_
*257 _211_
*258 _212_
*259 _213_
*260 _214_
*261 _215_
*262 _216_
*263 _217_
*264 _218_
*265 _219_
*266 _220_
*267 _221_
*268 _222_
*269 _223_
*270 _224_
*271 _225_
*272 _226_
*273 _227_
*274 _228_
*275 _229_
*276 _230_
*277 _231_
*278 _232_
*279 _233_
*280 _234_
*281 _235_
*282 _236_
*283 _237_
*284 _238_
*285 _239_
*286 _240_
*287 _241_
*288 _242_
*289 _243_
*290 _244_
*291 _245_
*292 _246_
*293 _247_
*294 _248_
*295 _249_
*296 _250_
*297 _251_
*298 _252_
*299 _253_
*300 _254_
*301 _255_
*302 _256_
*303 _257_
*304 _258_
*305 _259_
*306 _260_
*307 _261_
*308 _262_
*309 _263_
*310 _264_
*311 _265_
*312 _266_
*313 _267_
*314 _268_
*315 _269_
*316 _270_
*317 _271_
*318 _272_
*319 _273_
*320 _274_
*321 _275_
*322 _276_
*323 _277_
*324 _278_
*325 _279_
*326 _280_
*327 _281_
*328 _282_
*329 _283_
*330 _284_
*331 _285_
*332 _286_
*333 _287_
*334 _288_
*335 _289_
*336 _290_
*337 _291_
*338 _292_
*339 _293_
*340 _294_
*341 _295_
*342 _296_
*343 _297_
*344 _298_
*345 _299_
*346 _300_
*347 _301_
*348 _302_
*349 _303_
*350 _304_
*351 _305_
*352 _306_
*353 _307_
*354 _308_
*355 _309_
*356 _310_
*357 _311_
*358 _312_
*359 _313_
*360 _314_
*361 _315_
*362 _316_
*363 _317_
*364 _318_
*365 _319_
*366 _320_
*367 _321_
*368 _322_
*369 _323_
*370 _324_
*371 _325_
*372 _326_
*373 _327_
*374 _328_
*375 _329_
*376 _330_
*377 _331_
*378 _332_
*379 _333_
*380 _334_
*381 _335_
*382 _336_
*383 _337_
*384 _338_
*385 _339_
*386 _340_
*387 _341_
*388 _342_
*389 _343_
*390 _344_
*391 _345_
*392 _346_
*393 _347_
*394 _348_
*395 _349_
*396 _350_
*397 _351_
*398 _352_
*399 _353_
*400 _354_
*401 _355_
*402 _356_
*403 _357_
*404 _358_
*405 _359_
*406 net1
*407 net10
*408 net11
*409 net12
*410 net13
*411 net14
*412 net15
*413 net2
*414 net3
*415 net4
*416 net5
*417 net6
*418 net7
*419 net8
*420 net9
*421 top1\.FSM1\.SL
*422 top1\.FSM1\.a0
*423 top1\.FSM1\.a1
*424 top1\.FSM1\.a2
*425 top1\.FSM1\.counter_register\[0\]
*426 top1\.FSM1\.counter_register\[1\]
*427 top1\.FSM1\.counter_register\[2\]
*428 top1\.FSM1\.counter_register\[3\]
*429 top1\.FSM1\.ovf
*430 top1\.FSM1\.ovf_RTC
*431 top1\.FSM1\.state_reg\[0\]
*432 top1\.FSM1\.state_reg\[1\]
*433 top1\.FSM1\.state_reg\[2\]
*434 top1\.FSM1\.state_reg\[4\]
*435 top1\.FSM1\.state_reg\[5\]
*436 top1\.PISO_register1\.register\[0\]
*437 top1\.PISO_register1\.register\[10\]
*438 top1\.PISO_register1\.register\[11\]
*439 top1\.PISO_register1\.register\[1\]
*440 top1\.PISO_register1\.register\[2\]
*441 top1\.PISO_register1\.register\[3\]
*442 top1\.PISO_register1\.register\[4\]
*443 top1\.PISO_register1\.register\[5\]
*444 top1\.PISO_register1\.register\[6\]
*445 top1\.PISO_register1\.register\[7\]
*446 top1\.PISO_register1\.register\[8\]
*447 top1\.PISO_register1\.register\[9\]
*448 top1\.PISO_register1\.serial_out
*449 top1\.ch1_data\[0\]
*450 top1\.ch1_data\[10\]
*451 top1\.ch1_data\[11\]
*452 top1\.ch1_data\[1\]
*453 top1\.ch1_data\[2\]
*454 top1\.ch1_data\[3\]
*455 top1\.ch1_data\[4\]
*456 top1\.ch1_data\[5\]
*457 top1\.ch1_data\[6\]
*458 top1\.ch1_data\[7\]
*459 top1\.ch1_data\[8\]
*460 top1\.ch1_data\[9\]
*461 top1\.ch1c\.ovf
*462 top1\.ch2_data\[0\]
*463 top1\.ch2_data\[10\]
*464 top1\.ch2_data\[11\]
*465 top1\.ch2_data\[1\]
*466 top1\.ch2_data\[2\]
*467 top1\.ch2_data\[3\]
*468 top1\.ch2_data\[4\]
*469 top1\.ch2_data\[5\]
*470 top1\.ch2_data\[6\]
*471 top1\.ch2_data\[7\]
*472 top1\.ch2_data\[8\]
*473 top1\.ch2_data\[9\]
*474 top1\.ch2c\.ovf
*475 top1\.ch3_data\[0\]
*476 top1\.ch3_data\[10\]
*477 top1\.ch3_data\[11\]
*478 top1\.ch3_data\[1\]
*479 top1\.ch3_data\[2\]
*480 top1\.ch3_data\[3\]
*481 top1\.ch3_data\[4\]
*482 top1\.ch3_data\[5\]
*483 top1\.ch3_data\[6\]
*484 top1\.ch3_data\[7\]
*485 top1\.ch3_data\[8\]
*486 top1\.ch3_data\[9\]
*487 top1\.ch3c\.ovf
*488 top1\.ch4_data\[0\]
*489 top1\.ch4_data\[10\]
*490 top1\.ch4_data\[11\]
*491 top1\.ch4_data\[1\]
*492 top1\.ch4_data\[2\]
*493 top1\.ch4_data\[3\]
*494 top1\.ch4_data\[4\]
*495 top1\.ch4_data\[5\]
*496 top1\.ch4_data\[6\]
*497 top1\.ch4_data\[7\]
*498 top1\.ch4_data\[8\]
*499 top1\.ch4_data\[9\]
*500 top1\.ch4c\.ovf
*501 top1\.ovf_global
*502 top1\.time_c\.min\[0\]
*503 top1\.time_c\.min\[1\]
*504 top1\.time_c\.min\[2\]
*505 top1\.time_c\.min\[3\]
*506 top1\.time_c\.min\[4\]
*507 top1\.time_c\.min\[5\]
*508 top1\.time_c\.sec\[0\]
*509 top1\.time_c\.sec\[1\]
*510 top1\.time_c\.sec\[2\]
*511 top1\.time_c\.sec\[3\]
*512 top1\.time_c\.sec\[4\]
*513 top1\.time_c\.sec\[5\]
*514 FILLER_0_0_109
*515 FILLER_0_0_113
*516 FILLER_0_0_125
*517 FILLER_0_0_137
*518 FILLER_0_0_141
*519 FILLER_0_0_15
*520 FILLER_0_0_153
*521 FILLER_0_0_165
*522 FILLER_0_0_169
*523 FILLER_0_0_181
*524 FILLER_0_0_193
*525 FILLER_0_0_197
*526 FILLER_0_0_209
*527 FILLER_0_0_221
*528 FILLER_0_0_225
*529 FILLER_0_0_237
*530 FILLER_0_0_249
*531 FILLER_0_0_253
*532 FILLER_0_0_265
*533 FILLER_0_0_27
*534 FILLER_0_0_277
*535 FILLER_0_0_281
*536 FILLER_0_0_29
*537 FILLER_0_0_293
*538 FILLER_0_0_3
*539 FILLER_0_0_305
*540 FILLER_0_0_309
*541 FILLER_0_0_321
*542 FILLER_0_0_333
*543 FILLER_0_0_337
*544 FILLER_0_0_349
*545 FILLER_0_0_41
*546 FILLER_0_0_53
*547 FILLER_0_0_57
*548 FILLER_0_0_69
*549 FILLER_0_0_81
*550 FILLER_0_0_85
*551 FILLER_0_0_97
*552 FILLER_0_10_109
*553 FILLER_0_10_121
*554 FILLER_0_10_133
*555 FILLER_0_10_139
*556 FILLER_0_10_141
*557 FILLER_0_10_15
*558 FILLER_0_10_153
*559 FILLER_0_10_165
*560 FILLER_0_10_177
*561 FILLER_0_10_189
*562 FILLER_0_10_195
*563 FILLER_0_10_197
*564 FILLER_0_10_209
*565 FILLER_0_10_221
*566 FILLER_0_10_233
*567 FILLER_0_10_245
*568 FILLER_0_10_251
*569 FILLER_0_10_253
*570 FILLER_0_10_265
*571 FILLER_0_10_27
*572 FILLER_0_10_277
*573 FILLER_0_10_289
*574 FILLER_0_10_29
*575 FILLER_0_10_3
*576 FILLER_0_10_301
*577 FILLER_0_10_307
*578 FILLER_0_10_309
*579 FILLER_0_10_321
*580 FILLER_0_10_333
*581 FILLER_0_10_345
*582 FILLER_0_10_41
*583 FILLER_0_10_53
*584 FILLER_0_10_65
*585 FILLER_0_10_77
*586 FILLER_0_10_83
*587 FILLER_0_10_85
*588 FILLER_0_10_97
*589 FILLER_0_11_105
*590 FILLER_0_11_111
*591 FILLER_0_11_113
*592 FILLER_0_11_125
*593 FILLER_0_11_137
*594 FILLER_0_11_149
*595 FILLER_0_11_15
*596 FILLER_0_11_161
*597 FILLER_0_11_167
*598 FILLER_0_11_169
*599 FILLER_0_11_181
*600 FILLER_0_11_193
*601 FILLER_0_11_205
*602 FILLER_0_11_217
*603 FILLER_0_11_223
*604 FILLER_0_11_225
*605 FILLER_0_11_237
*606 FILLER_0_11_249
*607 FILLER_0_11_261
*608 FILLER_0_11_27
*609 FILLER_0_11_273
*610 FILLER_0_11_279
*611 FILLER_0_11_281
*612 FILLER_0_11_293
*613 FILLER_0_11_3
*614 FILLER_0_11_305
*615 FILLER_0_11_317
*616 FILLER_0_11_329
*617 FILLER_0_11_335
*618 FILLER_0_11_337
*619 FILLER_0_11_349
*620 FILLER_0_11_39
*621 FILLER_0_11_51
*622 FILLER_0_11_55
*623 FILLER_0_11_57
*624 FILLER_0_11_69
*625 FILLER_0_11_81
*626 FILLER_0_11_93
*627 FILLER_0_12_109
*628 FILLER_0_12_121
*629 FILLER_0_12_133
*630 FILLER_0_12_139
*631 FILLER_0_12_141
*632 FILLER_0_12_15
*633 FILLER_0_12_153
*634 FILLER_0_12_165
*635 FILLER_0_12_177
*636 FILLER_0_12_189
*637 FILLER_0_12_195
*638 FILLER_0_12_197
*639 FILLER_0_12_209
*640 FILLER_0_12_221
*641 FILLER_0_12_233
*642 FILLER_0_12_245
*643 FILLER_0_12_251
*644 FILLER_0_12_253
*645 FILLER_0_12_265
*646 FILLER_0_12_27
*647 FILLER_0_12_277
*648 FILLER_0_12_289
*649 FILLER_0_12_29
*650 FILLER_0_12_3
*651 FILLER_0_12_301
*652 FILLER_0_12_307
*653 FILLER_0_12_309
*654 FILLER_0_12_321
*655 FILLER_0_12_333
*656 FILLER_0_12_345
*657 FILLER_0_12_41
*658 FILLER_0_12_53
*659 FILLER_0_12_65
*660 FILLER_0_12_77
*661 FILLER_0_12_83
*662 FILLER_0_12_85
*663 FILLER_0_12_97
*664 FILLER_0_13_105
*665 FILLER_0_13_111
*666 FILLER_0_13_113
*667 FILLER_0_13_125
*668 FILLER_0_13_137
*669 FILLER_0_13_149
*670 FILLER_0_13_15
*671 FILLER_0_13_161
*672 FILLER_0_13_167
*673 FILLER_0_13_169
*674 FILLER_0_13_181
*675 FILLER_0_13_193
*676 FILLER_0_13_205
*677 FILLER_0_13_217
*678 FILLER_0_13_223
*679 FILLER_0_13_225
*680 FILLER_0_13_237
*681 FILLER_0_13_249
*682 FILLER_0_13_261
*683 FILLER_0_13_27
*684 FILLER_0_13_273
*685 FILLER_0_13_279
*686 FILLER_0_13_281
*687 FILLER_0_13_293
*688 FILLER_0_13_3
*689 FILLER_0_13_305
*690 FILLER_0_13_317
*691 FILLER_0_13_329
*692 FILLER_0_13_335
*693 FILLER_0_13_337
*694 FILLER_0_13_349
*695 FILLER_0_13_39
*696 FILLER_0_13_51
*697 FILLER_0_13_55
*698 FILLER_0_13_57
*699 FILLER_0_13_69
*700 FILLER_0_13_81
*701 FILLER_0_13_93
*702 FILLER_0_14_109
*703 FILLER_0_14_121
*704 FILLER_0_14_133
*705 FILLER_0_14_139
*706 FILLER_0_14_141
*707 FILLER_0_14_15
*708 FILLER_0_14_153
*709 FILLER_0_14_165
*710 FILLER_0_14_177
*711 FILLER_0_14_189
*712 FILLER_0_14_195
*713 FILLER_0_14_197
*714 FILLER_0_14_209
*715 FILLER_0_14_221
*716 FILLER_0_14_233
*717 FILLER_0_14_245
*718 FILLER_0_14_251
*719 FILLER_0_14_253
*720 FILLER_0_14_265
*721 FILLER_0_14_27
*722 FILLER_0_14_277
*723 FILLER_0_14_289
*724 FILLER_0_14_29
*725 FILLER_0_14_3
*726 FILLER_0_14_301
*727 FILLER_0_14_307
*728 FILLER_0_14_309
*729 FILLER_0_14_321
*730 FILLER_0_14_333
*731 FILLER_0_14_345
*732 FILLER_0_14_41
*733 FILLER_0_14_53
*734 FILLER_0_14_65
*735 FILLER_0_14_77
*736 FILLER_0_14_83
*737 FILLER_0_14_85
*738 FILLER_0_14_97
*739 FILLER_0_15_105
*740 FILLER_0_15_111
*741 FILLER_0_15_136
*742 FILLER_0_15_148
*743 FILLER_0_15_15
*744 FILLER_0_15_160
*745 FILLER_0_15_190
*746 FILLER_0_15_202
*747 FILLER_0_15_214
*748 FILLER_0_15_222
*749 FILLER_0_15_225
*750 FILLER_0_15_237
*751 FILLER_0_15_249
*752 FILLER_0_15_261
*753 FILLER_0_15_27
*754 FILLER_0_15_273
*755 FILLER_0_15_279
*756 FILLER_0_15_281
*757 FILLER_0_15_293
*758 FILLER_0_15_3
*759 FILLER_0_15_305
*760 FILLER_0_15_317
*761 FILLER_0_15_329
*762 FILLER_0_15_335
*763 FILLER_0_15_337
*764 FILLER_0_15_349
*765 FILLER_0_15_39
*766 FILLER_0_15_51
*767 FILLER_0_15_55
*768 FILLER_0_15_57
*769 FILLER_0_15_69
*770 FILLER_0_15_81
*771 FILLER_0_15_93
*772 FILLER_0_16_105
*773 FILLER_0_16_131
*774 FILLER_0_16_135
*775 FILLER_0_16_146
*776 FILLER_0_16_15
*777 FILLER_0_16_151
*778 FILLER_0_16_157
*779 FILLER_0_16_169
*780 FILLER_0_16_192
*781 FILLER_0_16_197
*782 FILLER_0_16_210
*783 FILLER_0_16_233
*784 FILLER_0_16_248
*785 FILLER_0_16_27
*786 FILLER_0_16_274
*787 FILLER_0_16_286
*788 FILLER_0_16_29
*789 FILLER_0_16_298
*790 FILLER_0_16_3
*791 FILLER_0_16_306
*792 FILLER_0_16_309
*793 FILLER_0_16_321
*794 FILLER_0_16_333
*795 FILLER_0_16_345
*796 FILLER_0_16_41
*797 FILLER_0_16_53
*798 FILLER_0_16_65
*799 FILLER_0_16_77
*800 FILLER_0_16_83
*801 FILLER_0_16_85
*802 FILLER_0_16_97
*803 FILLER_0_17_110
*804 FILLER_0_17_15
*805 FILLER_0_17_188
*806 FILLER_0_17_192
*807 FILLER_0_17_223
*808 FILLER_0_17_230
*809 FILLER_0_17_259
*810 FILLER_0_17_27
*811 FILLER_0_17_286
*812 FILLER_0_17_298
*813 FILLER_0_17_3
*814 FILLER_0_17_310
*815 FILLER_0_17_314
*816 FILLER_0_17_320
*817 FILLER_0_17_332
*818 FILLER_0_17_337
*819 FILLER_0_17_349
*820 FILLER_0_17_39
*821 FILLER_0_17_51
*822 FILLER_0_17_55
*823 FILLER_0_17_57
*824 FILLER_0_17_69
*825 FILLER_0_17_96
*826 FILLER_0_18_107
*827 FILLER_0_18_118
*828 FILLER_0_18_130
*829 FILLER_0_18_139
*830 FILLER_0_18_141
*831 FILLER_0_18_15
*832 FILLER_0_18_156
*833 FILLER_0_18_168
*834 FILLER_0_18_180
*835 FILLER_0_18_186
*836 FILLER_0_18_192
*837 FILLER_0_18_197
*838 FILLER_0_18_209
*839 FILLER_0_18_213
*840 FILLER_0_18_219
*841 FILLER_0_18_231
*842 FILLER_0_18_239
*843 FILLER_0_18_249
*844 FILLER_0_18_253
*845 FILLER_0_18_27
*846 FILLER_0_18_29
*847 FILLER_0_18_291
*848 FILLER_0_18_3
*849 FILLER_0_18_303
*850 FILLER_0_18_307
*851 FILLER_0_18_329
*852 FILLER_0_18_341
*853 FILLER_0_18_349
*854 FILLER_0_18_41
*855 FILLER_0_18_53
*856 FILLER_0_18_78
*857 FILLER_0_18_95
*858 FILLER_0_19_101
*859 FILLER_0_19_109
*860 FILLER_0_19_113
*861 FILLER_0_19_125
*862 FILLER_0_19_137
*863 FILLER_0_19_149
*864 FILLER_0_19_15
*865 FILLER_0_19_161
*866 FILLER_0_19_167
*867 FILLER_0_19_169
*868 FILLER_0_19_181
*869 FILLER_0_19_187
*870 FILLER_0_19_196
*871 FILLER_0_19_205
*872 FILLER_0_19_221
*873 FILLER_0_19_225
*874 FILLER_0_19_237
*875 FILLER_0_19_249
*876 FILLER_0_19_261
*877 FILLER_0_19_268
*878 FILLER_0_19_27
*879 FILLER_0_19_276
*880 FILLER_0_19_286
*881 FILLER_0_19_298
*882 FILLER_0_19_3
*883 FILLER_0_19_311
*884 FILLER_0_19_332
*885 FILLER_0_19_337
*886 FILLER_0_19_349
*887 FILLER_0_19_39
*888 FILLER_0_19_47
*889 FILLER_0_19_73
*890 FILLER_0_19_77
*891 FILLER_0_19_89
*892 FILLER_0_1_105
*893 FILLER_0_1_111
*894 FILLER_0_1_113
*895 FILLER_0_1_125
*896 FILLER_0_1_137
*897 FILLER_0_1_149
*898 FILLER_0_1_15
*899 FILLER_0_1_161
*900 FILLER_0_1_167
*901 FILLER_0_1_169
*902 FILLER_0_1_181
*903 FILLER_0_1_193
*904 FILLER_0_1_205
*905 FILLER_0_1_217
*906 FILLER_0_1_223
*907 FILLER_0_1_225
*908 FILLER_0_1_237
*909 FILLER_0_1_249
*910 FILLER_0_1_261
*911 FILLER_0_1_27
*912 FILLER_0_1_273
*913 FILLER_0_1_279
*914 FILLER_0_1_281
*915 FILLER_0_1_293
*916 FILLER_0_1_3
*917 FILLER_0_1_305
*918 FILLER_0_1_317
*919 FILLER_0_1_329
*920 FILLER_0_1_335
*921 FILLER_0_1_337
*922 FILLER_0_1_349
*923 FILLER_0_1_39
*924 FILLER_0_1_51
*925 FILLER_0_1_55
*926 FILLER_0_1_57
*927 FILLER_0_1_69
*928 FILLER_0_1_81
*929 FILLER_0_1_93
*930 FILLER_0_20_114
*931 FILLER_0_20_126
*932 FILLER_0_20_138
*933 FILLER_0_20_141
*934 FILLER_0_20_149
*935 FILLER_0_20_15
*936 FILLER_0_20_161
*937 FILLER_0_20_169
*938 FILLER_0_20_195
*939 FILLER_0_20_197
*940 FILLER_0_20_230
*941 FILLER_0_20_242
*942 FILLER_0_20_250
*943 FILLER_0_20_253
*944 FILLER_0_20_265
*945 FILLER_0_20_27
*946 FILLER_0_20_277
*947 FILLER_0_20_289
*948 FILLER_0_20_29
*949 FILLER_0_20_3
*950 FILLER_0_20_301
*951 FILLER_0_20_307
*952 FILLER_0_20_309
*953 FILLER_0_20_313
*954 FILLER_0_20_327
*955 FILLER_0_20_349
*956 FILLER_0_20_41
*957 FILLER_0_20_74
*958 FILLER_0_20_82
*959 FILLER_0_20_85
*960 FILLER_0_20_97
*961 FILLER_0_21_121
*962 FILLER_0_21_127
*963 FILLER_0_21_136
*964 FILLER_0_21_157
*965 FILLER_0_21_169
*966 FILLER_0_21_195
*967 FILLER_0_21_211
*968 FILLER_0_21_221
*969 FILLER_0_21_229
*970 FILLER_0_21_241
*971 FILLER_0_21_253
*972 FILLER_0_21_261
*973 FILLER_0_21_279
*974 FILLER_0_21_294
*975 FILLER_0_21_3
*976 FILLER_0_21_306
*977 FILLER_0_21_320
*978 FILLER_0_21_331
*979 FILLER_0_21_335
*980 FILLER_0_21_337
*981 FILLER_0_21_349
*982 FILLER_0_21_36
*983 FILLER_0_21_48
*984 FILLER_0_21_57
*985 FILLER_0_22_116
*986 FILLER_0_22_138
*987 FILLER_0_22_15
*988 FILLER_0_22_169
*989 FILLER_0_22_173
*990 FILLER_0_22_180
*991 FILLER_0_22_192
*992 FILLER_0_22_197
*993 FILLER_0_22_209
*994 FILLER_0_22_216
*995 FILLER_0_22_225
*996 FILLER_0_22_239
*997 FILLER_0_22_251
*998 FILLER_0_22_253
*999 FILLER_0_22_27
*1000 FILLER_0_22_3
*1001 FILLER_0_22_306
*1002 FILLER_0_22_326
*1003 FILLER_0_22_338
*1004 FILLER_0_22_350
*1005 FILLER_0_22_36
*1006 FILLER_0_22_48
*1007 FILLER_0_22_52
*1008 FILLER_0_22_83
*1009 FILLER_0_22_85
*1010 FILLER_0_23_103
*1011 FILLER_0_23_107
*1012 FILLER_0_23_113
*1013 FILLER_0_23_125
*1014 FILLER_0_23_137
*1015 FILLER_0_23_145
*1016 FILLER_0_23_15
*1017 FILLER_0_23_162
*1018 FILLER_0_23_177
*1019 FILLER_0_23_189
*1020 FILLER_0_23_201
*1021 FILLER_0_23_205
*1022 FILLER_0_23_214
*1023 FILLER_0_23_241
*1024 FILLER_0_23_253
*1025 FILLER_0_23_265
*1026 FILLER_0_23_275
*1027 FILLER_0_23_279
*1028 FILLER_0_23_289
*1029 FILLER_0_23_3
*1030 FILLER_0_23_301
*1031 FILLER_0_23_305
*1032 FILLER_0_23_320
*1033 FILLER_0_23_327
*1034 FILLER_0_23_335
*1035 FILLER_0_23_337
*1036 FILLER_0_23_349
*1037 FILLER_0_23_41
*1038 FILLER_0_23_48
*1039 FILLER_0_23_64
*1040 FILLER_0_23_79
*1041 FILLER_0_23_91
*1042 FILLER_0_24_109
*1043 FILLER_0_24_121
*1044 FILLER_0_24_133
*1045 FILLER_0_24_139
*1046 FILLER_0_24_141
*1047 FILLER_0_24_15
*1048 FILLER_0_24_153
*1049 FILLER_0_24_161
*1050 FILLER_0_24_170
*1051 FILLER_0_24_176
*1052 FILLER_0_24_188
*1053 FILLER_0_24_197
*1054 FILLER_0_24_201
*1055 FILLER_0_24_218
*1056 FILLER_0_24_230
*1057 FILLER_0_24_260
*1058 FILLER_0_24_27
*1059 FILLER_0_24_272
*1060 FILLER_0_24_284
*1061 FILLER_0_24_29
*1062 FILLER_0_24_296
*1063 FILLER_0_24_3
*1064 FILLER_0_24_335
*1065 FILLER_0_24_34
*1066 FILLER_0_24_347
*1067 FILLER_0_24_46
*1068 FILLER_0_24_67
*1069 FILLER_0_24_79
*1070 FILLER_0_24_83
*1071 FILLER_0_24_85
*1072 FILLER_0_24_97
*1073 FILLER_0_25_101
*1074 FILLER_0_25_140
*1075 FILLER_0_25_15
*1076 FILLER_0_25_151
*1077 FILLER_0_25_177
*1078 FILLER_0_25_189
*1079 FILLER_0_25_215
*1080 FILLER_0_25_263
*1081 FILLER_0_25_271
*1082 FILLER_0_25_288
*1083 FILLER_0_25_3
*1084 FILLER_0_25_300
*1085 FILLER_0_25_32
*1086 FILLER_0_25_337
*1087 FILLER_0_25_349
*1088 FILLER_0_25_41
*1089 FILLER_0_25_53
*1090 FILLER_0_25_57
*1091 FILLER_0_25_69
*1092 FILLER_0_25_81
*1093 FILLER_0_25_87
*1094 FILLER_0_25_93
*1095 FILLER_0_26_116
*1096 FILLER_0_26_127
*1097 FILLER_0_26_139
*1098 FILLER_0_26_169
*1099 FILLER_0_26_177
*1100 FILLER_0_26_212
*1101 FILLER_0_26_224
*1102 FILLER_0_26_243
*1103 FILLER_0_26_249
*1104 FILLER_0_26_269
*1105 FILLER_0_26_3
*1106 FILLER_0_26_302
*1107 FILLER_0_26_309
*1108 FILLER_0_26_313
*1109 FILLER_0_26_344
*1110 FILLER_0_26_350
*1111 FILLER_0_26_44
*1112 FILLER_0_26_59
*1113 FILLER_0_26_63
*1114 FILLER_0_26_77
*1115 FILLER_0_27_110
*1116 FILLER_0_27_117
*1117 FILLER_0_27_129
*1118 FILLER_0_27_139
*1119 FILLER_0_27_15
*1120 FILLER_0_27_169
*1121 FILLER_0_27_194
*1122 FILLER_0_27_206
*1123 FILLER_0_27_220
*1124 FILLER_0_27_233
*1125 FILLER_0_27_270
*1126 FILLER_0_27_279
*1127 FILLER_0_27_285
*1128 FILLER_0_27_297
*1129 FILLER_0_27_3
*1130 FILLER_0_27_309
*1131 FILLER_0_27_321
*1132 FILLER_0_27_333
*1133 FILLER_0_27_337
*1134 FILLER_0_27_349
*1135 FILLER_0_27_40
*1136 FILLER_0_27_54
*1137 FILLER_0_27_57
*1138 FILLER_0_27_81
*1139 FILLER_0_28_101
*1140 FILLER_0_28_113
*1141 FILLER_0_28_119
*1142 FILLER_0_28_141
*1143 FILLER_0_28_15
*1144 FILLER_0_28_150
*1145 FILLER_0_28_154
*1146 FILLER_0_28_163
*1147 FILLER_0_28_169
*1148 FILLER_0_28_177
*1149 FILLER_0_28_187
*1150 FILLER_0_28_195
*1151 FILLER_0_28_197
*1152 FILLER_0_28_209
*1153 FILLER_0_28_235
*1154 FILLER_0_28_253
*1155 FILLER_0_28_265
*1156 FILLER_0_28_27
*1157 FILLER_0_28_276
*1158 FILLER_0_28_288
*1159 FILLER_0_28_3
*1160 FILLER_0_28_300
*1161 FILLER_0_28_313
*1162 FILLER_0_28_346
*1163 FILLER_0_28_350
*1164 FILLER_0_28_59
*1165 FILLER_0_28_75
*1166 FILLER_0_28_83
*1167 FILLER_0_28_89
*1168 FILLER_0_29_108
*1169 FILLER_0_29_133
*1170 FILLER_0_29_139
*1171 FILLER_0_29_147
*1172 FILLER_0_29_15
*1173 FILLER_0_29_154
*1174 FILLER_0_29_166
*1175 FILLER_0_29_169
*1176 FILLER_0_29_176
*1177 FILLER_0_29_180
*1178 FILLER_0_29_189
*1179 FILLER_0_29_201
*1180 FILLER_0_29_220
*1181 FILLER_0_29_230
*1182 FILLER_0_29_238
*1183 FILLER_0_29_248
*1184 FILLER_0_29_260
*1185 FILLER_0_29_27
*1186 FILLER_0_29_288
*1187 FILLER_0_29_3
*1188 FILLER_0_29_319
*1189 FILLER_0_29_332
*1190 FILLER_0_29_337
*1191 FILLER_0_29_349
*1192 FILLER_0_29_39
*1193 FILLER_0_29_51
*1194 FILLER_0_29_55
*1195 FILLER_0_29_57
*1196 FILLER_0_29_69
*1197 FILLER_0_29_81
*1198 FILLER_0_29_93
*1199 FILLER_0_2_109
*1200 FILLER_0_2_121
*1201 FILLER_0_2_133
*1202 FILLER_0_2_139
*1203 FILLER_0_2_141
*1204 FILLER_0_2_15
*1205 FILLER_0_2_153
*1206 FILLER_0_2_165
*1207 FILLER_0_2_177
*1208 FILLER_0_2_189
*1209 FILLER_0_2_195
*1210 FILLER_0_2_197
*1211 FILLER_0_2_209
*1212 FILLER_0_2_221
*1213 FILLER_0_2_233
*1214 FILLER_0_2_245
*1215 FILLER_0_2_251
*1216 FILLER_0_2_253
*1217 FILLER_0_2_265
*1218 FILLER_0_2_27
*1219 FILLER_0_2_277
*1220 FILLER_0_2_289
*1221 FILLER_0_2_29
*1222 FILLER_0_2_3
*1223 FILLER_0_2_301
*1224 FILLER_0_2_307
*1225 FILLER_0_2_309
*1226 FILLER_0_2_321
*1227 FILLER_0_2_333
*1228 FILLER_0_2_345
*1229 FILLER_0_2_41
*1230 FILLER_0_2_53
*1231 FILLER_0_2_65
*1232 FILLER_0_2_77
*1233 FILLER_0_2_83
*1234 FILLER_0_2_85
*1235 FILLER_0_2_97
*1236 FILLER_0_30_101
*1237 FILLER_0_30_122
*1238 FILLER_0_30_134
*1239 FILLER_0_30_141
*1240 FILLER_0_30_15
*1241 FILLER_0_30_150
*1242 FILLER_0_30_158
*1243 FILLER_0_30_168
*1244 FILLER_0_30_186
*1245 FILLER_0_30_194
*1246 FILLER_0_30_197
*1247 FILLER_0_30_212
*1248 FILLER_0_30_234
*1249 FILLER_0_30_242
*1250 FILLER_0_30_250
*1251 FILLER_0_30_253
*1252 FILLER_0_30_261
*1253 FILLER_0_30_27
*1254 FILLER_0_30_275
*1255 FILLER_0_30_29
*1256 FILLER_0_30_297
*1257 FILLER_0_30_3
*1258 FILLER_0_30_309
*1259 FILLER_0_30_338
*1260 FILLER_0_30_350
*1261 FILLER_0_30_41
*1262 FILLER_0_30_53
*1263 FILLER_0_30_64
*1264 FILLER_0_30_69
*1265 FILLER_0_30_81
*1266 FILLER_0_30_85
*1267 FILLER_0_30_97
*1268 FILLER_0_31_131
*1269 FILLER_0_31_137
*1270 FILLER_0_31_143
*1271 FILLER_0_31_15
*1272 FILLER_0_31_155
*1273 FILLER_0_31_194
*1274 FILLER_0_31_202
*1275 FILLER_0_31_208
*1276 FILLER_0_31_222
*1277 FILLER_0_31_230
*1278 FILLER_0_31_242
*1279 FILLER_0_31_27
*1280 FILLER_0_31_270
*1281 FILLER_0_31_278
*1282 FILLER_0_31_290
*1283 FILLER_0_31_299
*1284 FILLER_0_31_3
*1285 FILLER_0_31_311
*1286 FILLER_0_31_319
*1287 FILLER_0_31_326
*1288 FILLER_0_31_334
*1289 FILLER_0_31_337
*1290 FILLER_0_31_349
*1291 FILLER_0_31_35
*1292 FILLER_0_31_60
*1293 FILLER_0_31_85
*1294 FILLER_0_32_100
*1295 FILLER_0_32_122
*1296 FILLER_0_32_130
*1297 FILLER_0_32_15
*1298 FILLER_0_32_153
*1299 FILLER_0_32_159
*1300 FILLER_0_32_186
*1301 FILLER_0_32_194
*1302 FILLER_0_32_205
*1303 FILLER_0_32_234
*1304 FILLER_0_32_238
*1305 FILLER_0_32_243
*1306 FILLER_0_32_27
*1307 FILLER_0_32_29
*1308 FILLER_0_32_299
*1309 FILLER_0_32_3
*1310 FILLER_0_32_307
*1311 FILLER_0_32_309
*1312 FILLER_0_32_33
*1313 FILLER_0_32_337
*1314 FILLER_0_32_349
*1315 FILLER_0_32_63
*1316 FILLER_0_32_94
*1317 FILLER_0_33_107
*1318 FILLER_0_33_111
*1319 FILLER_0_33_119
*1320 FILLER_0_33_131
*1321 FILLER_0_33_15
*1322 FILLER_0_33_150
*1323 FILLER_0_33_162
*1324 FILLER_0_33_181
*1325 FILLER_0_33_193
*1326 FILLER_0_33_201
*1327 FILLER_0_33_219
*1328 FILLER_0_33_223
*1329 FILLER_0_33_225
*1330 FILLER_0_33_237
*1331 FILLER_0_33_245
*1332 FILLER_0_33_252
*1333 FILLER_0_33_260
*1334 FILLER_0_33_27
*1335 FILLER_0_33_272
*1336 FILLER_0_33_281
*1337 FILLER_0_33_293
*1338 FILLER_0_33_3
*1339 FILLER_0_33_305
*1340 FILLER_0_33_340
*1341 FILLER_0_33_348
*1342 FILLER_0_33_39
*1343 FILLER_0_33_43
*1344 FILLER_0_33_66
*1345 FILLER_0_33_83
*1346 FILLER_0_33_95
*1347 FILLER_0_34_109
*1348 FILLER_0_34_121
*1349 FILLER_0_34_130
*1350 FILLER_0_34_139
*1351 FILLER_0_34_141
*1352 FILLER_0_34_15
*1353 FILLER_0_34_150
*1354 FILLER_0_34_161
*1355 FILLER_0_34_173
*1356 FILLER_0_34_185
*1357 FILLER_0_34_193
*1358 FILLER_0_34_197
*1359 FILLER_0_34_209
*1360 FILLER_0_34_226
*1361 FILLER_0_34_238
*1362 FILLER_0_34_250
*1363 FILLER_0_34_258
*1364 FILLER_0_34_263
*1365 FILLER_0_34_27
*1366 FILLER_0_34_275
*1367 FILLER_0_34_283
*1368 FILLER_0_34_29
*1369 FILLER_0_34_299
*1370 FILLER_0_34_3
*1371 FILLER_0_34_307
*1372 FILLER_0_34_309
*1373 FILLER_0_34_313
*1374 FILLER_0_34_343
*1375 FILLER_0_34_41
*1376 FILLER_0_34_45
*1377 FILLER_0_34_49
*1378 FILLER_0_34_61
*1379 FILLER_0_34_73
*1380 FILLER_0_34_81
*1381 FILLER_0_34_85
*1382 FILLER_0_34_97
*1383 FILLER_0_35_101
*1384 FILLER_0_35_105
*1385 FILLER_0_35_122
*1386 FILLER_0_35_133
*1387 FILLER_0_35_145
*1388 FILLER_0_35_15
*1389 FILLER_0_35_159
*1390 FILLER_0_35_167
*1391 FILLER_0_35_169
*1392 FILLER_0_35_181
*1393 FILLER_0_35_193
*1394 FILLER_0_35_197
*1395 FILLER_0_35_212
*1396 FILLER_0_35_223
*1397 FILLER_0_35_225
*1398 FILLER_0_35_237
*1399 FILLER_0_35_249
*1400 FILLER_0_35_27
*1401 FILLER_0_35_281
*1402 FILLER_0_35_290
*1403 FILLER_0_35_3
*1404 FILLER_0_35_302
*1405 FILLER_0_35_310
*1406 FILLER_0_35_316
*1407 FILLER_0_35_337
*1408 FILLER_0_35_349
*1409 FILLER_0_35_66
*1410 FILLER_0_35_92
*1411 FILLER_0_36_138
*1412 FILLER_0_36_15
*1413 FILLER_0_36_184
*1414 FILLER_0_36_197
*1415 FILLER_0_36_228
*1416 FILLER_0_36_236
*1417 FILLER_0_36_246
*1418 FILLER_0_36_256
*1419 FILLER_0_36_27
*1420 FILLER_0_36_29
*1421 FILLER_0_36_297
*1422 FILLER_0_36_3
*1423 FILLER_0_36_305
*1424 FILLER_0_36_309
*1425 FILLER_0_36_319
*1426 FILLER_0_36_342
*1427 FILLER_0_36_350
*1428 FILLER_0_36_37
*1429 FILLER_0_36_63
*1430 FILLER_0_37_101
*1431 FILLER_0_37_107
*1432 FILLER_0_37_133
*1433 FILLER_0_37_140
*1434 FILLER_0_37_146
*1435 FILLER_0_37_15
*1436 FILLER_0_37_189
*1437 FILLER_0_37_197
*1438 FILLER_0_37_225
*1439 FILLER_0_37_233
*1440 FILLER_0_37_255
*1441 FILLER_0_37_263
*1442 FILLER_0_37_27
*1443 FILLER_0_37_279
*1444 FILLER_0_37_281
*1445 FILLER_0_37_3
*1446 FILLER_0_37_305
*1447 FILLER_0_37_309
*1448 FILLER_0_37_337
*1449 FILLER_0_37_349
*1450 FILLER_0_37_39
*1451 FILLER_0_37_48
*1452 FILLER_0_37_66
*1453 FILLER_0_37_80
*1454 FILLER_0_37_93
*1455 FILLER_0_38_102
*1456 FILLER_0_38_106
*1457 FILLER_0_38_110
*1458 FILLER_0_38_122
*1459 FILLER_0_38_126
*1460 FILLER_0_38_130
*1461 FILLER_0_38_134
*1462 FILLER_0_38_14
*1463 FILLER_0_38_141
*1464 FILLER_0_38_153
*1465 FILLER_0_38_165
*1466 FILLER_0_38_169
*1467 FILLER_0_38_177
*1468 FILLER_0_38_18
*1469 FILLER_0_38_183
*1470 FILLER_0_38_195
*1471 FILLER_0_38_197
*1472 FILLER_0_38_209
*1473 FILLER_0_38_22
*1474 FILLER_0_38_221
*1475 FILLER_0_38_225
*1476 FILLER_0_38_237
*1477 FILLER_0_38_249
*1478 FILLER_0_38_253
*1479 FILLER_0_38_265
*1480 FILLER_0_38_273
*1481 FILLER_0_38_279
*1482 FILLER_0_38_3
*1483 FILLER_0_38_302
*1484 FILLER_0_38_312
*1485 FILLER_0_38_318
*1486 FILLER_0_38_32
*1487 FILLER_0_38_329
*1488 FILLER_0_38_335
*1489 FILLER_0_38_337
*1490 FILLER_0_38_349
*1491 FILLER_0_38_38
*1492 FILLER_0_38_42
*1493 FILLER_0_38_46
*1494 FILLER_0_38_50
*1495 FILLER_0_38_54
*1496 FILLER_0_38_57
*1497 FILLER_0_38_62
*1498 FILLER_0_38_66
*1499 FILLER_0_38_70
*1500 FILLER_0_38_74
*1501 FILLER_0_38_78
*1502 FILLER_0_38_88
*1503 FILLER_0_38_94
*1504 FILLER_0_38_98
*1505 FILLER_0_3_105
*1506 FILLER_0_3_111
*1507 FILLER_0_3_113
*1508 FILLER_0_3_125
*1509 FILLER_0_3_137
*1510 FILLER_0_3_149
*1511 FILLER_0_3_15
*1512 FILLER_0_3_161
*1513 FILLER_0_3_167
*1514 FILLER_0_3_169
*1515 FILLER_0_3_181
*1516 FILLER_0_3_193
*1517 FILLER_0_3_205
*1518 FILLER_0_3_217
*1519 FILLER_0_3_223
*1520 FILLER_0_3_225
*1521 FILLER_0_3_237
*1522 FILLER_0_3_249
*1523 FILLER_0_3_261
*1524 FILLER_0_3_27
*1525 FILLER_0_3_273
*1526 FILLER_0_3_279
*1527 FILLER_0_3_281
*1528 FILLER_0_3_293
*1529 FILLER_0_3_3
*1530 FILLER_0_3_305
*1531 FILLER_0_3_317
*1532 FILLER_0_3_329
*1533 FILLER_0_3_335
*1534 FILLER_0_3_337
*1535 FILLER_0_3_349
*1536 FILLER_0_3_39
*1537 FILLER_0_3_51
*1538 FILLER_0_3_55
*1539 FILLER_0_3_57
*1540 FILLER_0_3_69
*1541 FILLER_0_3_81
*1542 FILLER_0_3_93
*1543 FILLER_0_4_109
*1544 FILLER_0_4_121
*1545 FILLER_0_4_133
*1546 FILLER_0_4_139
*1547 FILLER_0_4_141
*1548 FILLER_0_4_15
*1549 FILLER_0_4_153
*1550 FILLER_0_4_165
*1551 FILLER_0_4_177
*1552 FILLER_0_4_189
*1553 FILLER_0_4_195
*1554 FILLER_0_4_197
*1555 FILLER_0_4_209
*1556 FILLER_0_4_221
*1557 FILLER_0_4_233
*1558 FILLER_0_4_245
*1559 FILLER_0_4_251
*1560 FILLER_0_4_253
*1561 FILLER_0_4_265
*1562 FILLER_0_4_27
*1563 FILLER_0_4_277
*1564 FILLER_0_4_289
*1565 FILLER_0_4_29
*1566 FILLER_0_4_3
*1567 FILLER_0_4_301
*1568 FILLER_0_4_307
*1569 FILLER_0_4_309
*1570 FILLER_0_4_321
*1571 FILLER_0_4_333
*1572 FILLER_0_4_345
*1573 FILLER_0_4_41
*1574 FILLER_0_4_53
*1575 FILLER_0_4_65
*1576 FILLER_0_4_77
*1577 FILLER_0_4_83
*1578 FILLER_0_4_85
*1579 FILLER_0_4_97
*1580 FILLER_0_5_105
*1581 FILLER_0_5_111
*1582 FILLER_0_5_113