*SPEF "ieee 1481-1999"
*DESIGN "tt_um_shift"
*DATE "11:11:11 Fri 11 11, 1111"
*VENDOR "OpenRCX"
*PROGRAM "Parallel Extraction"
*VERSION "1.0"
*DESIGN_FLOW "NAME_SCOPE LOCAL" "PIN_CAP NONE"
*DIVIDER /
*DELIMITER :
*BUS_DELIMITER []
*T_UNIT 1 NS
*C_UNIT 1 PF
*R_UNIT 1 OHM
*L_UNIT 1 HENRY

*NAME_MAP
*3 clk
*4 ena
*5 rst_n
*6 ui_in[0]
*7 ui_in[1]
*8 ui_in[2]
*9 ui_in[3]
*10 ui_in[4]
*11 ui_in[5]
*12 ui_in[6]
*13 ui_in[7]
*14 uio_in[0]
*15 uio_in[1]
*16 uio_in[2]
*17 uio_in[3]
*18 uio_in[4]
*19 uio_in[5]
*20 uio_in[6]
*21 uio_in[7]
*22 net16
*23 net17
*24 net18
*25 net19
*26 net20
*27 net21
*28 net22
*29 net23
*30 uio_out[0]
*31 uio_out[1]
*32 net10
*33 net11
*34 net12
*35 net13
*36 net14
*37 net15
*38 net24
*39 net25
*40 net26
*41 net27
*42 net28
*43 net29
*44 net30
*45 net31
*46 _000_
*47 _001_
*48 _002_
*49 _003_
*50 _004_
*51 _005_
*52 _006_
*53 _007_
*54 _008_
*55 _009_
*56 _010_
*57 _011_
*58 _012_
*59 _013_
*60 _014_
*61 _015_
*62 _016_
*63 _017_
*64 _018_
*65 _019_
*66 _020_
*67 _021_
*68 _022_
*69 _023_
*70 _024_
*71 _025_
*72 _026_
*73 _027_
*74 _028_
*75 _029_
*76 _030_
*77 _031_
*78 _032_
*79 _033_
*80 _034_
*81 _035_
*82 _036_
*83 _037_
*84 _038_
*85 _039_
*86 _040_
*87 _041_
*88 _042_
*89 _043_
*90 _044_
*91 _045_
*92 _046_
*93 _047_
*94 _048_
*95 _049_
*96 _050_
*97 _051_
*98 _052_
*99 _053_
*100 _054_
*101 _055_
*102 _056_
*103 _057_
*104 _058_
*105 _059_
*106 _060_
*107 _061_
*108 _062_
*109 _063_
*110 _064_
*111 _065_
*112 _066_
*113 _067_
*114 _068_
*115 _069_
*116 _070_
*117 _071_
*118 _072_
*119 clknet_0_clk
*120 clknet_1_0__leaf_clk
*121 clknet_1_1__leaf_clk
*122 net1
*123 net2
*124 net3
*125 net32
*126 net33
*127 net34
*128 net35
*129 net36
*130 net4
*131 net5
*132 net6
*133 net7
*134 net8
*135 net9
*136 sf1\.Dn\[0\]
*137 sf1\.Dn\[1\]
*138 sf1\.Dn\[2\]
*139 sf1\.Dn\[3\]
*140 sf1\.Dn\[4\]
*141 sf1\.Dn\[5\]
*142 sf1\.Dn\[6\]
*143 sf1\.Dn\[7\]
*144 sf1\.Q
*145 sf1\.count\[0\]
*146 sf1\.count\[1\]
*147 sf1\.count\[2\]
*148 sf1\.count\[3\]
*149 sf1\.count\[4\]
*150 sf1\.count\[5\]
*151 sf1\.count\[6\]
*152 sf1\.count\[7\]
*153 sf1\.eos
*154 sf1\.state
*155 FILLER_0_0_109
*156 FILLER_0_0_113
*157 FILLER_0_0_125
*158 FILLER_0_0_137
*159 FILLER_0_0_141
*160 FILLER_0_0_15
*161 FILLER_0_0_153
*162 FILLER_0_0_165
*163 FILLER_0_0_169
*164 FILLER_0_0_181
*165 FILLER_0_0_193
*166 FILLER_0_0_197
*167 FILLER_0_0_209
*168 FILLER_0_0_221
*169 FILLER_0_0_225
*170 FILLER_0_0_237
*171 FILLER_0_0_249
*172 FILLER_0_0_253
*173 FILLER_0_0_265
*174 FILLER_0_0_27
*175 FILLER_0_0_277
*176 FILLER_0_0_281
*177 FILLER_0_0_29
*178 FILLER_0_0_293
*179 FILLER_0_0_3
*180 FILLER_0_0_305
*181 FILLER_0_0_309
*182 FILLER_0_0_321
*183 FILLER_0_0_333
*184 FILLER_0_0_337
*185 FILLER_0_0_349
*186 FILLER_0_0_41
*187 FILLER_0_0_53
*188 FILLER_0_0_57
*189 FILLER_0_0_69
*190 FILLER_0_0_81
*191 FILLER_0_0_85
*192 FILLER_0_0_97
*193 FILLER_0_10_109
*194 FILLER_0_10_121
*195 FILLER_0_10_133
*196 FILLER_0_10_139
*197 FILLER_0_10_141
*198 FILLER_0_10_15
*199 FILLER_0_10_153
*200 FILLER_0_10_165
*201 FILLER_0_10_177
*202 FILLER_0_10_189
*203 FILLER_0_10_195
*204 FILLER_0_10_197
*205 FILLER_0_10_209
*206 FILLER_0_10_221
*207 FILLER_0_10_233
*208 FILLER_0_10_245
*209 FILLER_0_10_251
*210 FILLER_0_10_253
*211 FILLER_0_10_265
*212 FILLER_0_10_27
*213 FILLER_0_10_277
*214 FILLER_0_10_289
*215 FILLER_0_10_29
*216 FILLER_0_10_3
*217 FILLER_0_10_301
*218 FILLER_0_10_307
*219 FILLER_0_10_309
*220 FILLER_0_10_321
*221 FILLER_0_10_333
*222 FILLER_0_10_345
*223 FILLER_0_10_41
*224 FILLER_0_10_53
*225 FILLER_0_10_65
*226 FILLER_0_10_77
*227 FILLER_0_10_83
*228 FILLER_0_10_85
*229 FILLER_0_10_97
*230 FILLER_0_11_105
*231 FILLER_0_11_111
*232 FILLER_0_11_113
*233 FILLER_0_11_125
*234 FILLER_0_11_137
*235 FILLER_0_11_149
*236 FILLER_0_11_15
*237 FILLER_0_11_161
*238 FILLER_0_11_167
*239 FILLER_0_11_169
*240 FILLER_0_11_181
*241 FILLER_0_11_193
*242 FILLER_0_11_205
*243 FILLER_0_11_217
*244 FILLER_0_11_223
*245 FILLER_0_11_225
*246 FILLER_0_11_237
*247 FILLER_0_11_249
*248 FILLER_0_11_261
*249 FILLER_0_11_27
*250 FILLER_0_11_273
*251 FILLER_0_11_279
*252 FILLER_0_11_281
*253 FILLER_0_11_293
*254 FILLER_0_11_3
*255 FILLER_0_11_305
*256 FILLER_0_11_317
*257 FILLER_0_11_329
*258 FILLER_0_11_335
*259 FILLER_0_11_337
*260 FILLER_0_11_349
*261 FILLER_0_11_39
*262 FILLER_0_11_51
*263 FILLER_0_11_55
*264 FILLER_0_11_57
*265 FILLER_0_11_69
*266 FILLER_0_11_81
*267 FILLER_0_11_93
*268 FILLER_0_12_109
*269 FILLER_0_12_121
*270 FILLER_0_12_133
*271 FILLER_0_12_139
*272 FILLER_0_12_141
*273 FILLER_0_12_15
*274 FILLER_0_12_153
*275 FILLER_0_12_165
*276 FILLER_0_12_177
*277 FILLER_0_12_189
*278 FILLER_0_12_195
*279 FILLER_0_12_197
*280 FILLER_0_12_209
*281 FILLER_0_12_221
*282 FILLER_0_12_233
*283 FILLER_0_12_245
*284 FILLER_0_12_251
*285 FILLER_0_12_253
*286 FILLER_0_12_265
*287 FILLER_0_12_27
*288 FILLER_0_12_277
*289 FILLER_0_12_289
*290 FILLER_0_12_29
*291 FILLER_0_12_3
*292 FILLER_0_12_301
*293 FILLER_0_12_307
*294 FILLER_0_12_309
*295 FILLER_0_12_321
*296 FILLER_0_12_333
*297 FILLER_0_12_345
*298 FILLER_0_12_41
*299 FILLER_0_12_53
*300 FILLER_0_12_65
*301 FILLER_0_12_77
*302 FILLER_0_12_83
*303 FILLER_0_12_85
*304 FILLER_0_12_97
*305 FILLER_0_13_105
*306 FILLER_0_13_111
*307 FILLER_0_13_113
*308 FILLER_0_13_125
*309 FILLER_0_13_137
*310 FILLER_0_13_149
*311 FILLER_0_13_15
*312 FILLER_0_13_161
*313 FILLER_0_13_167
*314 FILLER_0_13_169
*315 FILLER_0_13_181
*316 FILLER_0_13_193
*317 FILLER_0_13_205
*318 FILLER_0_13_217
*319 FILLER_0_13_223
*320 FILLER_0_13_225
*321 FILLER_0_13_237
*322 FILLER_0_13_249
*323 FILLER_0_13_261
*324 FILLER_0_13_27
*325 FILLER_0_13_273
*326 FILLER_0_13_279
*327 FILLER_0_13_281
*328 FILLER_0_13_293
*329 FILLER_0_13_3
*330 FILLER_0_13_305
*331 FILLER_0_13_317
*332 FILLER_0_13_329
*333 FILLER_0_13_335
*334 FILLER_0_13_337
*335 FILLER_0_13_349
*336 FILLER_0_13_39
*337 FILLER_0_13_51
*338 FILLER_0_13_55
*339 FILLER_0_13_57
*340 FILLER_0_13_69
*341 FILLER_0_13_81
*342 FILLER_0_13_93
*343 FILLER_0_14_109
*344 FILLER_0_14_121
*345 FILLER_0_14_133
*346 FILLER_0_14_139
*347 FILLER_0_14_141
*348 FILLER_0_14_15
*349 FILLER_0_14_153
*350 FILLER_0_14_165
*351 FILLER_0_14_177
*352 FILLER_0_14_189
*353 FILLER_0_14_195
*354 FILLER_0_14_197
*355 FILLER_0_14_209
*356 FILLER_0_14_221
*357 FILLER_0_14_233
*358 FILLER_0_14_245
*359 FILLER_0_14_251
*360 FILLER_0_14_253
*361 FILLER_0_14_265
*362 FILLER_0_14_27
*363 FILLER_0_14_277
*364 FILLER_0_14_289
*365 FILLER_0_14_29
*366 FILLER_0_14_3
*367 FILLER_0_14_301
*368 FILLER_0_14_307
*369 FILLER_0_14_309
*370 FILLER_0_14_321
*371 FILLER_0_14_333
*372 FILLER_0_14_345
*373 FILLER_0_14_41
*374 FILLER_0_14_53
*375 FILLER_0_14_65
*376 FILLER_0_14_77
*377 FILLER_0_14_83
*378 FILLER_0_14_85
*379 FILLER_0_14_97
*380 FILLER_0_15_105
*381 FILLER_0_15_111
*382 FILLER_0_15_113
*383 FILLER_0_15_125
*384 FILLER_0_15_137
*385 FILLER_0_15_149
*386 FILLER_0_15_15
*387 FILLER_0_15_161
*388 FILLER_0_15_167
*389 FILLER_0_15_169
*390 FILLER_0_15_181
*391 FILLER_0_15_193
*392 FILLER_0_15_205
*393 FILLER_0_15_217
*394 FILLER_0_15_223
*395 FILLER_0_15_225
*396 FILLER_0_15_237
*397 FILLER_0_15_249
*398 FILLER_0_15_261
*399 FILLER_0_15_27
*400 FILLER_0_15_273
*401 FILLER_0_15_279
*402 FILLER_0_15_281
*403 FILLER_0_15_293
*404 FILLER_0_15_3
*405 FILLER_0_15_305
*406 FILLER_0_15_317
*407 FILLER_0_15_329
*408 FILLER_0_15_335
*409 FILLER_0_15_337
*410 FILLER_0_15_349
*411 FILLER_0_15_39
*412 FILLER_0_15_51
*413 FILLER_0_15_55
*414 FILLER_0_15_57
*415 FILLER_0_15_69
*416 FILLER_0_15_81
*417 FILLER_0_15_93
*418 FILLER_0_16_109
*419 FILLER_0_16_121
*420 FILLER_0_16_133
*421 FILLER_0_16_139
*422 FILLER_0_16_141
*423 FILLER_0_16_15
*424 FILLER_0_16_153
*425 FILLER_0_16_165
*426 FILLER_0_16_177
*427 FILLER_0_16_189
*428 FILLER_0_16_195
*429 FILLER_0_16_197
*430 FILLER_0_16_209
*431 FILLER_0_16_221
*432 FILLER_0_16_233
*433 FILLER_0_16_245
*434 FILLER_0_16_251
*435 FILLER_0_16_253
*436 FILLER_0_16_265
*437 FILLER_0_16_27
*438 FILLER_0_16_277
*439 FILLER_0_16_289
*440 FILLER_0_16_29
*441 FILLER_0_16_3
*442 FILLER_0_16_301
*443 FILLER_0_16_307
*444 FILLER_0_16_309
*445 FILLER_0_16_321
*446 FILLER_0_16_333
*447 FILLER_0_16_345
*448 FILLER_0_16_41
*449 FILLER_0_16_53
*450 FILLER_0_16_65
*451 FILLER_0_16_77
*452 FILLER_0_16_83
*453 FILLER_0_16_85
*454 FILLER_0_16_97
*455 FILLER_0_17_105
*456 FILLER_0_17_111
*457 FILLER_0_17_113
*458 FILLER_0_17_125
*459 FILLER_0_17_137
*460 FILLER_0_17_149
*461 FILLER_0_17_15
*462 FILLER_0_17_161
*463 FILLER_0_17_167
*464 FILLER_0_17_169
*465 FILLER_0_17_181
*466 FILLER_0_17_193
*467 FILLER_0_17_205
*468 FILLER_0_17_217
*469 FILLER_0_17_223
*470 FILLER_0_17_225
*471 FILLER_0_17_237
*472 FILLER_0_17_249
*473 FILLER_0_17_261
*474 FILLER_0_17_27
*475 FILLER_0_17_273
*476 FILLER_0_17_279
*477 FILLER_0_17_281
*478 FILLER_0_17_293
*479 FILLER_0_17_3
*480 FILLER_0_17_305
*481 FILLER_0_17_317
*482 FILLER_0_17_329
*483 FILLER_0_17_335
*484 FILLER_0_17_337
*485 FILLER_0_17_349
*486 FILLER_0_17_39
*487 FILLER_0_17_51
*488 FILLER_0_17_55
*489 FILLER_0_17_57
*490 FILLER_0_17_69
*491 FILLER_0_17_81
*492 FILLER_0_17_93
*493 FILLER_0_18_109
*494 FILLER_0_18_121
*495 FILLER_0_18_133
*496 FILLER_0_18_139
*497 FILLER_0_18_141
*498 FILLER_0_18_15
*499 FILLER_0_18_153
*500 FILLER_0_18_165
*501 FILLER_0_18_177
*502 FILLER_0_18_189
*503 FILLER_0_18_195
*504 FILLER_0_18_197
*505 FILLER_0_18_209
*506 FILLER_0_18_221
*507 FILLER_0_18_233
*508 FILLER_0_18_245
*509 FILLER_0_18_251
*510 FILLER_0_18_253
*511 FILLER_0_18_265
*512 FILLER_0_18_27
*513 FILLER_0_18_277
*514 FILLER_0_18_289
*515 FILLER_0_18_29
*516 FILLER_0_18_3
*517 FILLER_0_18_301
*518 FILLER_0_18_307
*519 FILLER_0_18_309
*520 FILLER_0_18_321
*521 FILLER_0_18_333
*522 FILLER_0_18_345
*523 FILLER_0_18_41
*524 FILLER_0_18_53
*525 FILLER_0_18_65
*526 FILLER_0_18_77
*527 FILLER_0_18_83
*528 FILLER_0_18_85
*529 FILLER_0_18_97
*530 FILLER_0_19_105
*531 FILLER_0_19_111
*532 FILLER_0_19_113
*533 FILLER_0_19_125
*534 FILLER_0_19_137
*535 FILLER_0_19_149
*536 FILLER_0_19_15
*537 FILLER_0_19_161
*538 FILLER_0_19_167
*539 FILLER_0_19_169
*540 FILLER_0_19_181
*541 FILLER_0_19_193
*542 FILLER_0_19_205
*543 FILLER_0_19_217
*544 FILLER_0_19_223
*545 FILLER_0_19_225
*546 FILLER_0_19_237
*547 FILLER_0_19_249
*548 FILLER_0_19_261
*549 FILLER_0_19_27
*550 FILLER_0_19_273
*551 FILLER_0_19_279
*552 FILLER_0_19_281
*553 FILLER_0_19_293
*554 FILLER_0_19_3
*555 FILLER_0_19_305
*556 FILLER_0_19_317
*557 FILLER_0_19_329
*558 FILLER_0_19_335
*559 FILLER_0_19_337
*560 FILLER_0_19_349
*561 FILLER_0_19_39
*562 FILLER_0_19_51
*563 FILLER_0_19_55
*564 FILLER_0_19_57
*565 FILLER_0_19_69
*566 FILLER_0_19_81
*567 FILLER_0_19_93
*568 FILLER_0_1_105
*569 FILLER_0_1_111
*570 FILLER_0_1_113
*571 FILLER_0_1_125
*572 FILLER_0_1_137
*573 FILLER_0_1_149
*574 FILLER_0_1_15
*575 FILLER_0_1_161
*576 FILLER_0_1_167
*577 FILLER_0_1_169
*578 FILLER_0_1_181
*579 FILLER_0_1_193
*580 FILLER_0_1_205
*581 FILLER_0_1_217
*582 FILLER_0_1_223
*583 FILLER_0_1_225
*584 FILLER_0_1_237
*585 FILLER_0_1_249
*586 FILLER_0_1_261
*587 FILLER_0_1_27
*588 FILLER_0_1_273
*589 FILLER_0_1_279
*590 FILLER_0_1_281
*591 FILLER_0_1_293
*592 FILLER_0_1_3
*593 FILLER_0_1_305
*594 FILLER_0_1_317
*595 FILLER_0_1_329
*596 FILLER_0_1_335
*597 FILLER_0_1_337
*598 FILLER_0_1_349
*599 FILLER_0_1_39
*600 FILLER_0_1_51
*601 FILLER_0_1_55
*602 FILLER_0_1_57
*603 FILLER_0_1_69
*604 FILLER_0_1_81
*605 FILLER_0_1_93
*606 FILLER_0_20_109
*607 FILLER_0_20_121
*608 FILLER_0_20_133
*609 FILLER_0_20_139
*610 FILLER_0_20_141
*611 FILLER_0_20_15
*612 FILLER_0_20_153
*613 FILLER_0_20_165
*614 FILLER_0_20_177
*615 FILLER_0_20_189
*616 FILLER_0_20_195
*617 FILLER_0_20_197
*618 FILLER_0_20_209
*619 FILLER_0_20_221
*620 FILLER_0_20_233
*621 FILLER_0_20_245
*622 FILLER_0_20_251
*623 FILLER_0_20_253
*624 FILLER_0_20_265
*625 FILLER_0_20_27
*626 FILLER_0_20_277
*627 FILLER_0_20_289
*628 FILLER_0_20_29
*629 FILLER_0_20_3
*630 FILLER_0_20_301
*631 FILLER_0_20_307
*632 FILLER_0_20_309
*633 FILLER_0_20_321
*634 FILLER_0_20_333
*635 FILLER_0_20_345
*636 FILLER_0_20_41
*637 FILLER_0_20_53
*638 FILLER_0_20_65
*639 FILLER_0_20_77
*640 FILLER_0_20_83
*641 FILLER_0_20_85
*642 FILLER_0_20_97
*643 FILLER_0_21_105
*644 FILLER_0_21_111
*645 FILLER_0_21_113
*646 FILLER_0_21_125
*647 FILLER_0_21_137
*648 FILLER_0_21_149
*649 FILLER_0_21_15
*650 FILLER_0_21_161
*651 FILLER_0_21_167
*652 FILLER_0_21_169
*653 FILLER_0_21_181
*654 FILLER_0_21_193
*655 FILLER_0_21_205
*656 FILLER_0_21_217
*657 FILLER_0_21_223
*658 FILLER_0_21_225
*659 FILLER_0_21_237
*660 FILLER_0_21_249
*661 FILLER_0_21_261
*662 FILLER_0_21_27
*663 FILLER_0_21_273
*664 FILLER_0_21_279
*665 FILLER_0_21_281
*666 FILLER_0_21_293
*667 FILLER_0_21_3
*668 FILLER_0_21_305
*669 FILLER_0_21_317
*670 FILLER_0_21_329
*671 FILLER_0_21_335
*672 FILLER_0_21_337
*673 FILLER_0_21_349
*674 FILLER_0_21_39
*675 FILLER_0_21_51
*676 FILLER_0_21_55
*677 FILLER_0_21_57
*678 FILLER_0_21_69
*679 FILLER_0_21_81
*680 FILLER_0_21_93
*681 FILLER_0_22_109
*682 FILLER_0_22_121
*683 FILLER_0_22_133
*684 FILLER_0_22_139
*685 FILLER_0_22_141
*686 FILLER_0_22_15
*687 FILLER_0_22_153
*688 FILLER_0_22_165
*689 FILLER_0_22_177
*690 FILLER_0_22_189
*691 FILLER_0_22_195
*692 FILLER_0_22_197
*693 FILLER_0_22_209
*694 FILLER_0_22_221
*695 FILLER_0_22_233
*696 FILLER_0_22_245
*697 FILLER_0_22_251
*698 FILLER_0_22_253
*699 FILLER_0_22_265
*700 FILLER_0_22_27
*701 FILLER_0_22_277
*702 FILLER_0_22_289
*703 FILLER_0_22_29
*704 FILLER_0_22_3
*705 FILLER_0_22_301
*706 FILLER_0_22_307
*707 FILLER_0_22_309
*708 FILLER_0_22_321
*709 FILLER_0_22_333
*710 FILLER_0_22_345
*711 FILLER_0_22_41
*712 FILLER_0_22_53
*713 FILLER_0_22_65
*714 FILLER_0_22_77
*715 FILLER_0_22_83
*716 FILLER_0_22_85
*717 FILLER_0_22_97
*718 FILLER_0_23_105
*719 FILLER_0_23_111
*720 FILLER_0_23_113
*721 FILLER_0_23_125
*722 FILLER_0_23_137
*723 FILLER_0_23_149
*724 FILLER_0_23_15
*725 FILLER_0_23_161
*726 FILLER_0_23_167
*727 FILLER_0_23_169
*728 FILLER_0_23_181
*729 FILLER_0_23_193
*730 FILLER_0_23_205
*731 FILLER_0_23_217
*732 FILLER_0_23_223
*733 FILLER_0_23_225
*734 FILLER_0_23_237
*735 FILLER_0_23_249
*736 FILLER_0_23_261
*737 FILLER_0_23_27
*738 FILLER_0_23_273
*739 FILLER_0_23_279
*740 FILLER_0_23_281
*741 FILLER_0_23_293
*742 FILLER_0_23_3
*743 FILLER_0_23_305
*744 FILLER_0_23_317
*745 FILLER_0_23_329
*746 FILLER_0_23_335
*747 FILLER_0_23_337
*748 FILLER_0_23_349
*749 FILLER_0_23_39
*750 FILLER_0_23_51
*751 FILLER_0_23_55
*752 FILLER_0_23_57
*753 FILLER_0_23_69
*754 FILLER_0_23_81
*755 FILLER_0_23_93
*756 FILLER_0_24_109
*757 FILLER_0_24_121
*758 FILLER_0_24_133
*759 FILLER_0_24_139
*760 FILLER_0_24_141
*761 FILLER_0_24_15
*762 FILLER_0_24_153
*763 FILLER_0_24_165
*764 FILLER_0_24_177
*765 FILLER_0_24_189
*766 FILLER_0_24_195
*767 FILLER_0_24_197
*768 FILLER_0_24_209
*769 FILLER_0_24_221
*770 FILLER_0_24_233
*771 FILLER_0_24_245
*772 FILLER_0_24_251
*773 FILLER_0_24_253
*774 FILLER_0_24_265
*775 FILLER_0_24_27
*776 FILLER_0_24_277
*777 FILLER_0_24_289
*778 FILLER_0_24_29
*779 FILLER_0_24_3
*780 FILLER_0_24_301
*781 FILLER_0_24_307
*782 FILLER_0_24_309
*783 FILLER_0_24_321
*784 FILLER_0_24_333
*785 FILLER_0_24_345
*786 FILLER_0_24_41
*787 FILLER_0_24_53
*788 FILLER_0_24_65
*789 FILLER_0_24_77
*790 FILLER_0_24_83
*791 FILLER_0_24_85
*792 FILLER_0_24_97
*793 FILLER_0_25_105
*794 FILLER_0_25_111
*795 FILLER_0_25_113
*796 FILLER_0_25_125
*797 FILLER_0_25_137
*798 FILLER_0_25_149
*799 FILLER_0_25_15
*800 FILLER_0_25_161
*801 FILLER_0_25_167
*802 FILLER_0_25_169
*803 FILLER_0_25_181
*804 FILLER_0_25_193
*805 FILLER_0_25_205
*806 FILLER_0_25_217
*807 FILLER_0_25_223
*808 FILLER_0_25_225
*809 FILLER_0_25_237
*810 FILLER_0_25_249
*811 FILLER_0_25_261
*812 FILLER_0_25_27
*813 FILLER_0_25_273
*814 FILLER_0_25_279
*815 FILLER_0_25_281
*816 FILLER_0_25_293
*817 FILLER_0_25_3
*818 FILLER_0_25_305
*819 FILLER_0_25_317
*820 FILLER_0_25_329
*821 FILLER_0_25_335
*822 FILLER_0_25_337
*823 FILLER_0_25_349
*824 FILLER_0_25_39
*825 FILLER_0_25_51
*826 FILLER_0_25_55
*827 FILLER_0_25_57
*828 FILLER_0_25_69
*829 FILLER_0_25_81
*830 FILLER_0_25_93
*831 FILLER_0_26_109
*832 FILLER_0_26_121
*833 FILLER_0_26_133
*834 FILLER_0_26_139
*835 FILLER_0_26_141
*836 FILLER_0_26_15
*837 FILLER_0_26_153
*838 FILLER_0_26_165
*839 FILLER_0_26_177
*840 FILLER_0_26_189
*841 FILLER_0_26_195
*842 FILLER_0_26_197
*843 FILLER_0_26_209
*844 FILLER_0_26_221
*845 FILLER_0_26_233
*846 FILLER_0_26_245
*847 FILLER_0_26_251
*848 FILLER_0_26_253
*849 FILLER_0_26_265
*850 FILLER_0_26_27
*851 FILLER_0_26_277
*852 FILLER_0_26_289
*853 FILLER_0_26_29
*854 FILLER_0_26_3
*855 FILLER_0_26_301
*856 FILLER_0_26_307
*857 FILLER_0_26_309
*858 FILLER_0_26_321
*859 FILLER_0_26_333
*860 FILLER_0_26_345
*861 FILLER_0_26_41
*862 FILLER_0_26_53
*863 FILLER_0_26_65
*864 FILLER_0_26_77
*865 FILLER_0_26_83
*866 FILLER_0_26_85
*867 FILLER_0_26_97
*868 FILLER_0_27_105
*869 FILLER_0_27_111
*870 FILLER_0_27_113
*871 FILLER_0_27_125
*872 FILLER_0_27_137
*873 FILLER_0_27_149
*874 FILLER_0_27_15
*875 FILLER_0_27_161
*876 FILLER_0_27_167
*877 FILLER_0_27_169
*878 FILLER_0_27_181
*879 FILLER_0_27_193
*880 FILLER_0_27_205
*881 FILLER_0_27_217
*882 FILLER_0_27_223
*883 FILLER_0_27_225
*884 FILLER_0_27_237
*885 FILLER_0_27_249
*886 FILLER_0_27_261
*887 FILLER_0_27_27
*888 FILLER_0_27_273
*889 FILLER_0_27_279
*890 FILLER_0_27_281
*891 FILLER_0_27_293
*892 FILLER_0_27_3
*893 FILLER_0_27_305
*894 FILLER_0_27_317
*895 FILLER_0_27_329
*896 FILLER_0_27_335
*897 FILLER_0_27_337
*898 FILLER_0_27_349
*899 FILLER_0_27_39
*900 FILLER_0_27_51
*901 FILLER_0_27_55
*902 FILLER_0_27_57
*903 FILLER_0_27_69
*904 FILLER_0_27_81
*905 FILLER_0_27_93
*906 FILLER_0_28_109
*907 FILLER_0_28_121
*908 FILLER_0_28_133
*909 FILLER_0_28_139
*910 FILLER_0_28_141
*911 FILLER_0_28_15
*912 FILLER_0_28_153
*913 FILLER_0_28_165
*914 FILLER_0_28_177
*915 FILLER_0_28_189
*916 FILLER_0_28_195
*917 FILLER_0_28_197
*918 FILLER_0_28_209
*919 FILLER_0_28_221
*920 FILLER_0_28_233
*921 FILLER_0_28_245
*922 FILLER_0_28_251
*923 FILLER_0_28_253
*924 FILLER_0_28_265
*925 FILLER_0_28_27
*926 FILLER_0_28_277
*927 FILLER_0_28_289
*928 FILLER_0_28_29
*929 FILLER_0_28_3
*930 FILLER_0_28_301
*931 FILLER_0_28_307
*932 FILLER_0_28_309
*933 FILLER_0_28_321
*934 FILLER_0_28_333
*935 FILLER_0_28_345
*936 FILLER_0_28_41
*937 FILLER_0_28_53
*938 FILLER_0_28_65
*939 FILLER_0_28_77
*940 FILLER_0_28_83
*941 FILLER_0_28_85
*942 FILLER_0_28_97
*943 FILLER_0_29_105
*944 FILLER_0_29_111
*945 FILLER_0_29_113
*946 FILLER_0_29_125
*947 FILLER_0_29_137
*948 FILLER_0_29_149
*949 FILLER_0_29_15
*950 FILLER_0_29_161
*951 FILLER_0_29_167
*952 FILLER_0_29_169
*953 FILLER_0_29_181
*954 FILLER_0_29_193
*955 FILLER_0_29_205
*956 FILLER_0_29_217
*957 FILLER_0_29_223
*958 FILLER_0_29_225
*959 FILLER_0_29_237
*960 FILLER_0_29_249
*961 FILLER_0_29_261
*962 FILLER_0_29_27
*963 FILLER_0_29_273
*964 FILLER_0_29_279
*965 FILLER_0_29_281
*966 FILLER_0_29_293
*967 FILLER_0_29_3
*968 FILLER_0_29_305
*969 FILLER_0_29_317
*970 FILLER_0_29_329
*971 FILLER_0_29_335
*972 FILLER_0_29_337
*973 FILLER_0_29_349
*974 FILLER_0_29_39
*975 FILLER_0_29_51
*976 FILLER_0_29_55
*977 FILLER_0_29_57
*978 FILLER_0_29_69
*979 FILLER_0_29_81
*980 FILLER_0_29_93
*981 FILLER_0_2_109
*982 FILLER_0_2_121
*983 FILLER_0_2_133
*984 FILLER_0_2_139
*985 FILLER_0_2_141
*986 FILLER_0_2_15
*987 FILLER_0_2_153
*988 FILLER_0_2_165
*989 FILLER_0_2_177
*990 FILLER_0_2_189
*991 FILLER_0_2_195
*992 FILLER_0_2_197
*993 FILLER_0_2_209
*994 FILLER_0_2_221
*995 FILLER_0_2_233
*996 FILLER_0_2_245
*997 FILLER_0_2_251
*998 FILLER_0_2_253
*999 FILLER_0_2_265
*1000 FILLER_0_2_27
*1001 FILLER_0_2_277
*1002 FILLER_0_2_289
*1003 FILLER_0_2_29
*1004 FILLER_0_2_3
*1005 FILLER_0_2_301
*1006 FILLER_0_2_307
*1007 FILLER_0_2_309
*1008 FILLER_0_2_321
*1009 FILLER_0_2_333
*1010 FILLER_0_2_345
*1011 FILLER_0_2_41
*1012 FILLER_0_2_53
*1013 FILLER_0_2_65
*1014 FILLER_0_2_77
*1015 FILLER_0_2_83
*1016 FILLER_0_2_85
*1017 FILLER_0_2_97
*1018 FILLER_0_30_109
*1019 FILLER_0_30_121
*1020 FILLER_0_30_133
*1021 FILLER_0_30_139
*1022 FILLER_0_30_141
*1023 FILLER_0_30_15
*1024 FILLER_0_30_153
*1025 FILLER_0_30_165
*1026 FILLER_0_30_177
*1027 FILLER_0_30_185
*1028 FILLER_0_30_190
*1029 FILLER_0_30_197
*1030 FILLER_0_30_209
*1031 FILLER_0_30_221
*1032 FILLER_0_30_233
*1033 FILLER_0_30_245
*1034 FILLER_0_30_251
*1035 FILLER_0_30_253
*1036 FILLER_0_30_265
*1037 FILLER_0_30_27
*1038 FILLER_0_30_288
*1039 FILLER_0_30_29
*1040 FILLER_0_30_3
*1041 FILLER_0_30_300
*1042 FILLER_0_30_309
*1043 FILLER_0_30_321
*1044 FILLER_0_30_333
*1045 FILLER_0_30_345
*1046 FILLER_0_30_41
*1047 FILLER_0_30_53
*1048 FILLER_0_30_65
*1049 FILLER_0_30_77
*1050 FILLER_0_30_83
*1051 FILLER_0_30_85
*1052 FILLER_0_30_97
*1053 FILLER_0_31_105
*1054 FILLER_0_31_111
*1055 FILLER_0_31_113
*1056 FILLER_0_31_125
*1057 FILLER_0_31_137
*1058 FILLER_0_31_149
*1059 FILLER_0_31_15
*1060 FILLER_0_31_161
*1061 FILLER_0_31_167
*1062 FILLER_0_31_172
*1063 FILLER_0_31_178
*1064 FILLER_0_31_183
*1065 FILLER_0_31_200
*1066 FILLER_0_31_225
*1067 FILLER_0_31_243
*1068 FILLER_0_31_265
*1069 FILLER_0_31_27
*1070 FILLER_0_31_271
*1071 FILLER_0_31_275
*1072 FILLER_0_31_279
*1073 FILLER_0_31_281
*1074 FILLER_0_31_295
*1075 FILLER_0_31_3
*1076 FILLER_0_31_311
*1077 FILLER_0_31_323
*1078 FILLER_0_31_335
*1079 FILLER_0_31_337
*1080 FILLER_0_31_349
*1081 FILLER_0_31_39
*1082 FILLER_0_31_51
*1083 FILLER_0_31_55
*1084 FILLER_0_31_57
*1085 FILLER_0_31_69
*1086 FILLER_0_31_81
*1087 FILLER_0_31_93
*1088 FILLER_0_32_109
*1089 FILLER_0_32_121
*1090 FILLER_0_32_133
*1091 FILLER_0_32_139
*1092 FILLER_0_32_141
*1093 FILLER_0_32_15
*1094 FILLER_0_32_153
*1095 FILLER_0_32_161
*1096 FILLER_0_32_179
*1097 FILLER_0_32_195
*1098 FILLER_0_32_208
*1099 FILLER_0_32_219
*1100 FILLER_0_32_240
*1101 FILLER_0_32_248
*1102 FILLER_0_32_253
*1103 FILLER_0_32_262
*1104 FILLER_0_32_27
*1105 FILLER_0_32_271
*1106 FILLER_0_32_29
*1107 FILLER_0_32_3
*1108 FILLER_0_32_304
*1109 FILLER_0_32_326
*1110 FILLER_0_32_338
*1111 FILLER_0_32_350
*1112 FILLER_0_32_41
*1113 FILLER_0_32_53
*1114 FILLER_0_32_65
*1115 FILLER_0_32_77
*1116 FILLER_0_32_83
*1117 FILLER_0_32_85
*1118 FILLER_0_32_97
*1119 FILLER_0_33_105
*1120 FILLER_0_33_111
*1121 FILLER_0_33_113
*1122 FILLER_0_33_125
*1123 FILLER_0_33_137
*1124 FILLER_0_33_149
*1125 FILLER_0_33_15
*1126 FILLER_0_33_161
*1127 FILLER_0_33_167
*1128 FILLER_0_33_173
*1129 FILLER_0_33_180
*1130 FILLER_0_33_187
*1131 FILLER_0_33_208
*1132 FILLER_0_33_220
*1133 FILLER_0_33_225
*1134 FILLER_0_33_237
*1135 FILLER_0_33_251
*1136 FILLER_0_33_27
*1137 FILLER_0_33_274
*1138 FILLER_0_33_281
*1139 FILLER_0_33_293
*1140 FILLER_0_33_3
*1141 FILLER_0_33_305
*1142 FILLER_0_33_317
*1143 FILLER_0_33_321
*1144 FILLER_0_33_326
*1145 FILLER_0_33_330
*1146 FILLER_0_33_337
*1147 FILLER_0_33_349
*1148 FILLER_0_33_39
*1149 FILLER_0_33_51
*1150 FILLER_0_33_55
*1151 FILLER_0_33_57
*1152 FILLER_0_33_69
*1153 FILLER_0_33_81
*1154 FILLER_0_33_93
*1155 FILLER_0_34_109
*1156 FILLER_0_34_121
*1157 FILLER_0_34_133
*1158 FILLER_0_34_139
*1159 FILLER_0_34_141
*1160 FILLER_0_34_15
*1161 FILLER_0_34_153
*1162 FILLER_0_34_159
*1163 FILLER_0_34_184
*1164 FILLER_0_34_193
*1165 FILLER_0_34_202
*1166 FILLER_0_34_216
*1167 FILLER_0_34_224
*1168 FILLER_0_34_234
*1169 FILLER_0_34_243
*1170 FILLER_0_34_253
*1171 FILLER_0_34_27
*1172 FILLER_0_34_275
*1173 FILLER_0_34_283
*1174 FILLER_0_34_29
*1175 FILLER_0_34_3
*1176 FILLER_0_34_309
*1177 FILLER_0_34_326
*1178 FILLER_0_34_344
*1179 FILLER_0_34_350
*1180 FILLER_0_34_41
*1181 FILLER_0_34_53
*1182 FILLER_0_34_65
*1183 FILLER_0_34_77
*1184 FILLER_0_34_83
*1185 FILLER_0_34_85
*1186 FILLER_0_34_97
*1187 FILLER_0_35_105
*1188 FILLER_0_35_111
*1189 FILLER_0_35_113
*1190 FILLER_0_35_125
*1191 FILLER_0_35_137
*1192 FILLER_0_35_149
*1193 FILLER_0_35_15
*1194 FILLER_0_35_161
*1195 FILLER_0_35_167
*1196 FILLER_0_35_169
*1197 FILLER_0_35_175
*1198 FILLER_0_35_179
*1199 FILLER_0_35_192
*1200 FILLER_0_35_204
*1201 FILLER_0_35_216
*1202 FILLER_0_35_223
*1203 FILLER_0_35_225
*1204 FILLER_0_35_237
*1205 FILLER_0_35_259
*1206 FILLER_0_35_27
*1207 FILLER_0_35_276
*1208 FILLER_0_35_281
*1209 FILLER_0_35_293
*1210 FILLER_0_35_3
*1211 FILLER_0_35_301
*1212 FILLER_0_35_335
*1213 FILLER_0_35_337
*1214 FILLER_0_35_349
*1215 FILLER_0_35_39
*1216 FILLER_0_35_51
*1217 FILLER_0_35_55
*1218 FILLER_0_35_57
*1219 FILLER_0_35_69
*1220 FILLER_0_35_81
*1221 FILLER_0_35_93
*1222 FILLER_0_36_109
*1223 FILLER_0_36_121
*1224 FILLER_0_36_133
*1225 FILLER_0_36_139
*1226 FILLER_0_36_141
*1227 FILLER_0_36_15
*1228 FILLER_0_36_153
*1229 FILLER_0_36_165
*1230 FILLER_0_36_171
*1231 FILLER_0_36_188
*1232 FILLER_0_36_242
*1233 FILLER_0_36_250
*1234 FILLER_0_36_253
*1235 FILLER_0_36_27
*1236 FILLER_0_36_280
*1237 FILLER_0_36_286
*1238 FILLER_0_36_29
*1239 FILLER_0_36_3
*1240 FILLER_0_36_300
*1241 FILLER_0_36_309
*1242 FILLER_0_36_318
*1243 FILLER_0_36_349
*1244 FILLER_0_36_41
*1245 FILLER_0_36_53
*1246 FILLER_0_36_65
*1247 FILLER_0_36_77
*1248 FILLER_0_36_83
*1249 FILLER_0_36_85
*1250 FILLER_0_36_97
*1251 FILLER_0_37_105
*1252 FILLER_0_37_111
*1253 FILLER_0_37_113
*1254 FILLER_0_37_125
*1255 FILLER_0_37_137
*1256 FILLER_0_37_149
*1257 FILLER_0_37_15
*1258 FILLER_0_37_161
*1259 FILLER_0_37_167
*1260 FILLER_0_37_169
*1261 FILLER_0_37_181
*1262 FILLER_0_37_190
*1263 FILLER_0_37_202
*1264 FILLER_0_37_233
*1265 FILLER_0_37_245
*1266 FILLER_0_37_250
*1267 FILLER_0_37_262
*1268 FILLER_0_37_268
*1269 FILLER_0_37_27
*1270 FILLER_0_37_3
*1271 FILLER_0_37_302
*1272 FILLER_0_37_310
*1273 FILLER_0_37_340
*1274 FILLER_0_37_348
*1275 FILLER_0_37_39
*1276 FILLER_0_37_51
*1277 FILLER_0_37_55
*1278 FILLER_0_37_57
*1279 FILLER_0_37_69
*1280 FILLER_0_37_81
*1281 FILLER_0_37_93
*1282 FILLER_0_38_102
*1283 FILLER_0_38_106
*1284 FILLER_0_38_110
*1285 FILLER_0_38_113
*1286 FILLER_0_38_118
*1287 FILLER_0_38_130
*1288 FILLER_0_38_136
*1289 FILLER_0_38_14
*1290 FILLER_0_38_145
*1291 FILLER_0_38_150
*1292 FILLER_0_38_162
*1293 FILLER_0_38_166
*1294 FILLER_0_38_169
*1295 FILLER_0_38_174
*1296 FILLER_0_38_18
*1297 FILLER_0_38_200
*1298 FILLER_0_38_206
*1299 FILLER_0_38_215
*1300 FILLER_0_38_22
*1301 FILLER_0_38_223
*1302 FILLER_0_38_225
*1303 FILLER_0_38_233
*1304 FILLER_0_38_243
*1305 FILLER_0_38_262
*1306 FILLER_0_38_266
*1307 FILLER_0_38_270
*1308 FILLER_0_38_274
*1309 FILLER_0_38_278
*1310 FILLER_0_38_3
*1311 FILLER_0_38_32
*1312 FILLER_0_38_335
*1313 FILLER_0_38_344
*1314 FILLER_0_38_350
*1315 FILLER_0_38_38
*1316 FILLER_0_38_42
*1317 FILLER_0_38_46
*1318 FILLER_0_38_50
*1319 FILLER_0_38_54
*1320 FILLER_0_38_57
*1321 FILLER_0_38_62
*1322 FILLER_0_38_66
*1323 FILLER_0_38_70
*1324 FILLER_0_38_74
*1325 FILLER_0_38_78
*1326 FILLER_0_38_88
*1327 FILLER_0_38_94
*1328 FILLER_0_38_98
*1329 FILLER_0_3_105
*1330 FILLER_0_3_111
*1331 FILLER_0_3_113
*1332 FILLER_0_3_125
*1333 FILLER_0_3_137
*1334 FILLER_0_3_149
*1335 FILLER_0_3_15
*1336 FILLER_0_3_161
*1337 FILLER_0_3_167
*1338 FILLER_0_3_169
*1339 FILLER_0_3_181
*1340 FILLER_0_3_193
*1341 FILLER_0_3_205
*1342 FILLER_0_3_217
*1343 FILLER_0_3_223
*1344 FILLER_0_3_225
*1345 FILLER_0_3_237
*1346 FILLER_0_3_249
*1347 FILLER_0_3_261
*1348 FILLER_0_3_27
*1349 FILLER_0_3_273
*1350 FILLER_0_3_279
*1351 FILLER_0_3_281
*1352 FILLER_0_3_293
*1353 FILLER_0_3_3
*1354 FILLER_0_3_305
*1355 FILLER_0_3_317
*1356 FILLER_0_3_329
*1357 FILLER_0_3_335
*1358 FILLER_0_3_337
*1359 FILLER_0_3_349
*1360 FILLER_0_3_39
*1361 FILLER_0_3_51
*1362 FILLER_0_3_55
*1363 FILLER_0_3_57
*1364 FILLER_0_3_69
*1365 FILLER_0_3_81
*1366 FILLER_0_3_93
*1367 FILLER_0_4_109
*1368 FILLER_0_4_121
*1369 FILLER_0_4_133
*1370 FILLER_0_4_139
*1371 FILLER_0_4_141
*1372 FILLER_0_4_15
*1373 FILLER_0_4_153
*1374 FILLER_0_4_165
*1375 FILLER_0_4_177
*1376 FILLER_0_4_189
*1377 FILLER_0_4_195
*1378 FILLER_0_4_197
*1379 FILLER_0_4_209
*1380 FILLER_0_4_221
*1381 FILLER_0_4_233
*1382 FILLER_0_4_245
*1383 FILLER_0_4_251
*1384 FILLER_0_4_253
*1385 FILLER_0_4_265
*1386 FILLER_0_4_27
*1387 FILLER_0_4_277
*1388 FILLER_0_4_289
*1389 FILLER_0_4_29
*1390 FILLER_0_4_3
*1391 FILLER_0_4_301
*1392 FILLER_0_4_307
*1393 FILLER_0_4_309
*1394 FILLER_0_4_321
*1395 FILLER_0_4_333
*1396 FILLER_0_4_345
*1397 FILLER_0_4_41
*1398 FILLER_0_4_53
*1399 FILLER_0_4_65
*1400 FILLER_0_4_77
*1401 FILLER_0_4_83
*1402 FILLER_0_4_85
*1403 FILLER_0_4_97
*1404 FILLER_0_5_105
*1405 FILLER_0_5_111
*1406 FILLER_0_5_113
*1407 FILLER_0_5_125
*1408 FILLER_0_5_137
*1409 FILLER_0_5_149
*1410 FILLER_0_5_15
*1411 FILLER_0_5_161
*1412 FILLER_0_5_167
*1413 FILLER_0_5_169
*1414 FILLER_0_5_181
*1415 FILLER_0_5_193
*1416 FILLER_0_5_205
*1417 FILLER_0_5_217
*1418 FILLER_0_5_223
*1419 FILLER_0_5_225
*1420 FILLER_0_5_237
*1421 FILLER_0_5_249
*1422 FILLER_0_5_261
*1423 FILLER_0_5_27
*1424 FILLER_0_5_273
*1425 FILLER_0_5_279
*1426 FILLER_0_5_281
*1427 FILLER_0_5_293
*1428 FILLER_0_5_3
*1429 FILLER_0_5_305
*1430 FILLER_0_5_317
*1431 FILLER_0_5_329
*1432 FILLER_0_5_335
*1433 FILLER_0_5_337
*1434 FILLER_0_5_349
*1435 FILLER_0_5_39
*1436 FILLER_0_5_51
*1437 FILLER_0_5_55
*1438 FILLER_0_5_57
*1439 FILLER_0_5_69
*1440 FILLER_0_5_81
*1441 FILLER_0_5_93
*1442 FILLER_0_6_109
*1443 FILLER_0_6_121
*1444 FILLER_0_6_133
*1445 FILLER_0_6_139
*1446 FILLER_0_6_141
*1447 FILLER_0_6_15
*1448 FILLER_0_6_153
*1449 FILLER_0_6_165
*1450 FILLER_0_6_177
*1451 FILLER_0_6_189
*1452 FILLER_0_6_195
*1453 FILLER_0_6_197
*1454 FILLER_0_6_209
*1455 FILLER_0_6_221
*1456 FILLER_0_6_233
*1457 FILLER_0_6_245
*1458 FILLER_0_6_251
*1459 FILLER_0_6_253
*1460 FILLER_0_6_265
*1461 FILLER_0_6_27
*1462 FILLER_0_6_277
*1463 FILLER_0_6_289
*1464 FILLER_0_6_29
*1465 FILLER_0_6_3
*1466 FILLER_0_6_301
*1467 FILLER_0_6_307
*1468 FILLER_0_6_309
*1469 FILLER_0_6_321
*1470 FILLER_0_6_333
*1471 FILLER_0_6_345
*1472 FILLER_0_6_41
*1473 FILLER_0_6_53
*1474 FILLER_0_6_65
*1475 FILLER_0_6_77
*1476 FILLER_0_6_83
*1477 FILLER_0_6_85
*1478 FILLER_0_6_97
*1479 FILLER_0_7_105
*1480 FILLER_0_7_111
*1481 FILLER_0_7_113
*1482 FILLER_0_7_125
*1483 FILLER_0_7_137
*1484 FILLER_0_7_149
*1485 FILLER_0_7_15
*1486 FILLER_0_7_161
*1487 FILLER_0_7_167
*1488 FILLER_0_7_169
*1489 FILLER_0_7_181
*1490 FILLER_0_7_193
*1491 FILLER_0_7_205
*1492 FILLER_0_7_217