*SPEF "ieee 1481-1999"
*DESIGN "tt_um_htfab_rotfpga2"
*DATE "11:11:11 Fri 11 11, 1111"
*VENDOR "OpenRCX"
*PROGRAM "Parallel Extraction"
*VERSION "1.0"
*DESIGN_FLOW "NAME_SCOPE LOCAL" "PIN_CAP NONE"
*DIVIDER /
*DELIMITER :
*BUS_DELIMITER []
*T_UNIT 1 NS
*C_UNIT 1 PF
*R_UNIT 1 OHM
*L_UNIT 1 HENRY

*NAME_MAP
*3 clk
*4 ena
*5 rst_n
*6 ui_in[0]
*7 ui_in[1]
*8 ui_in[2]
*9 ui_in[3]
*10 ui_in[4]
*11 ui_in[5]
*12 ui_in[6]
*13 ui_in[7]
*14 uio_in[0]
*15 uio_in[1]
*16 uio_in[2]
*17 uio_in[3]
*18 uio_in[4]
*19 uio_in[5]
*20 uio_in[6]
*21 uio_in[7]
*22 net60
*23 net61
*24 net62
*25 net63
*26 net64
*27 net65
*28 net66
*29 net74
*30 net67
*31 net68
*32 net69
*33 net70
*34 net71
*35 net72
*36 net73
*37 uio_out[7]
*38 uo_out[0]
*39 uo_out[1]
*40 uo_out[2]
*41 uo_out[3]
*42 uo_out[4]
*43 uo_out[5]
*44 uo_out[6]
*45 uo_out[7]
*46 _00_
*47 _01_
*48 _02_
*49 _03_
*50 _04_
*51 _05_
*52 clknet_0_clk
*53 clknet_3_0__leaf_clk
*54 clknet_3_1__leaf_clk
*55 clknet_3_2__leaf_clk
*56 clknet_3_3__leaf_clk
*57 clknet_3_4__leaf_clk
*58 clknet_3_5__leaf_clk
*59 clknet_3_6__leaf_clk
*60 clknet_3_7__leaf_clk
*61 g\.cfg_d
*62 g\.cfg_h
*63 g\.cfg_v
*64 g\.g_y\[0\]\.g_x\[0\]\.t\.in_b
*65 g\.g_y\[0\]\.g_x\[0\]\.t\.in_lb
*66 g\.g_y\[0\]\.g_x\[0\]\.t\.in_r
*67 g\.g_y\[0\]\.g_x\[0\]\.t\.in_sc
*68 g\.g_y\[0\]\.g_x\[0\]\.t\.in_se
*69 g\.g_y\[0\]\.g_x\[0\]\.t\.in_t
*70 g\.g_y\[0\]\.g_x\[0\]\.t\.out_b
*71 g\.g_y\[0\]\.g_x\[0\]\.t\.out_l
*72 g\.g_y\[0\]\.g_x\[0\]\.t\.out_r
*73 g\.g_y\[0\]\.g_x\[0\]\.t\.out_sc
*74 g\.g_y\[0\]\.g_x\[0\]\.t\.out_t
*75 g\.g_y\[0\]\.g_x\[0\]\.t\.w_d
*76 g\.g_y\[0\]\.g_x\[0\]\.t\.w_dh
*77 g\.g_y\[0\]\.g_x\[0\]\.t\.w_dv
*78 g\.g_y\[0\]\.g_x\[0\]\.t\.w_gh
*79 g\.g_y\[0\]\.g_x\[0\]\.t\.w_gn
*80 g\.g_y\[0\]\.g_x\[0\]\.t\.w_h
*81 g\.g_y\[0\]\.g_x\[0\]\.t\.w_hl
*82 g\.g_y\[0\]\.g_x\[0\]\.t\.w_hr
*83 g\.g_y\[0\]\.g_x\[0\]\.t\.w_na
*84 g\.g_y\[0\]\.g_x\[0\]\.t\.w_oh
*85 g\.g_y\[0\]\.g_x\[0\]\.t\.w_ov
*86 g\.g_y\[0\]\.g_x\[0\]\.t\.w_v
*87 g\.g_y\[0\]\.g_x\[0\]\.t\.w_vb
*88 g\.g_y\[0\]\.g_x\[0\]\.t\.w_vt
*89 g\.g_y\[0\]\.g_x\[1\]\.t\.in_b
*90 g\.g_y\[0\]\.g_x\[1\]\.t\.in_r
*91 g\.g_y\[0\]\.g_x\[1\]\.t\.in_t
*92 g\.g_y\[0\]\.g_x\[1\]\.t\.out_b
*93 g\.g_y\[0\]\.g_x\[1\]\.t\.out_r
*94 g\.g_y\[0\]\.g_x\[1\]\.t\.out_sc
*95 g\.g_y\[0\]\.g_x\[1\]\.t\.out_t
*96 g\.g_y\[0\]\.g_x\[1\]\.t\.w_d
*97 g\.g_y\[0\]\.g_x\[1\]\.t\.w_dh
*98 g\.g_y\[0\]\.g_x\[1\]\.t\.w_dv
*99 g\.g_y\[0\]\.g_x\[1\]\.t\.w_gn
*100 g\.g_y\[0\]\.g_x\[1\]\.t\.w_h
*101 g\.g_y\[0\]\.g_x\[1\]\.t\.w_hl
*102 g\.g_y\[0\]\.g_x\[1\]\.t\.w_hr
*103 g\.g_y\[0\]\.g_x\[1\]\.t\.w_oh
*104 g\.g_y\[0\]\.g_x\[1\]\.t\.w_ov
*105 g\.g_y\[0\]\.g_x\[1\]\.t\.w_v
*106 g\.g_y\[0\]\.g_x\[1\]\.t\.w_vb
*107 g\.g_y\[0\]\.g_x\[1\]\.t\.w_vt
*108 g\.g_y\[0\]\.g_x\[2\]\.t\.in_b
*109 g\.g_y\[0\]\.g_x\[2\]\.t\.in_lb
*110 g\.g_y\[0\]\.g_x\[2\]\.t\.in_r
*111 g\.g_y\[0\]\.g_x\[2\]\.t\.in_t
*112 g\.g_y\[0\]\.g_x\[2\]\.t\.out_b
*113 g\.g_y\[0\]\.g_x\[2\]\.t\.out_r
*114 g\.g_y\[0\]\.g_x\[2\]\.t\.out_sc
*115 g\.g_y\[0\]\.g_x\[2\]\.t\.out_t
*116 g\.g_y\[0\]\.g_x\[2\]\.t\.w_d
*117 g\.g_y\[0\]\.g_x\[2\]\.t\.w_dh
*118 g\.g_y\[0\]\.g_x\[2\]\.t\.w_dv
*119 g\.g_y\[0\]\.g_x\[2\]\.t\.w_gh
*120 g\.g_y\[0\]\.g_x\[2\]\.t\.w_gn
*121 g\.g_y\[0\]\.g_x\[2\]\.t\.w_h
*122 g\.g_y\[0\]\.g_x\[2\]\.t\.w_hl
*123 g\.g_y\[0\]\.g_x\[2\]\.t\.w_hr
*124 g\.g_y\[0\]\.g_x\[2\]\.t\.w_na
*125 g\.g_y\[0\]\.g_x\[2\]\.t\.w_oh
*126 g\.g_y\[0\]\.g_x\[2\]\.t\.w_ov
*127 g\.g_y\[0\]\.g_x\[2\]\.t\.w_v
*128 g\.g_y\[0\]\.g_x\[2\]\.t\.w_vb
*129 g\.g_y\[0\]\.g_x\[2\]\.t\.w_vt
*130 g\.g_y\[0\]\.g_x\[3\]\.t\.in_b
*131 g\.g_y\[0\]\.g_x\[3\]\.t\.in_r
*132 g\.g_y\[0\]\.g_x\[3\]\.t\.in_t
*133 g\.g_y\[0\]\.g_x\[3\]\.t\.out_b
*134 g\.g_y\[0\]\.g_x\[3\]\.t\.out_r
*135 g\.g_y\[0\]\.g_x\[3\]\.t\.out_sc
*136 g\.g_y\[0\]\.g_x\[3\]\.t\.out_t
*137 g\.g_y\[0\]\.g_x\[3\]\.t\.w_d
*138 g\.g_y\[0\]\.g_x\[3\]\.t\.w_dh
*139 g\.g_y\[0\]\.g_x\[3\]\.t\.w_dv
*140 g\.g_y\[0\]\.g_x\[3\]\.t\.w_gn
*141 g\.g_y\[0\]\.g_x\[3\]\.t\.w_h
*142 g\.g_y\[0\]\.g_x\[3\]\.t\.w_hl
*143 g\.g_y\[0\]\.g_x\[3\]\.t\.w_hr
*144 g\.g_y\[0\]\.g_x\[3\]\.t\.w_oh
*145 g\.g_y\[0\]\.g_x\[3\]\.t\.w_ov
*146 g\.g_y\[0\]\.g_x\[3\]\.t\.w_v
*147 g\.g_y\[0\]\.g_x\[3\]\.t\.w_vb
*148 g\.g_y\[0\]\.g_x\[3\]\.t\.w_vt
*149 g\.g_y\[0\]\.g_x\[4\]\.t\.in_b
*150 g\.g_y\[0\]\.g_x\[4\]\.t\.in_r
*151 g\.g_y\[0\]\.g_x\[4\]\.t\.in_t
*152 g\.g_y\[0\]\.g_x\[4\]\.t\.out_b
*153 g\.g_y\[0\]\.g_x\[4\]\.t\.out_r
*154 g\.g_y\[0\]\.g_x\[4\]\.t\.out_sc
*155 g\.g_y\[0\]\.g_x\[4\]\.t\.out_t
*156 g\.g_y\[0\]\.g_x\[4\]\.t\.w_d
*157 g\.g_y\[0\]\.g_x\[4\]\.t\.w_dh
*158 g\.g_y\[0\]\.g_x\[4\]\.t\.w_dv
*159 g\.g_y\[0\]\.g_x\[4\]\.t\.w_gh
*160 g\.g_y\[0\]\.g_x\[4\]\.t\.w_gn
*161 g\.g_y\[0\]\.g_x\[4\]\.t\.w_h
*162 g\.g_y\[0\]\.g_x\[4\]\.t\.w_hl
*163 g\.g_y\[0\]\.g_x\[4\]\.t\.w_hr
*164 g\.g_y\[0\]\.g_x\[4\]\.t\.w_na
*165 g\.g_y\[0\]\.g_x\[4\]\.t\.w_oh
*166 g\.g_y\[0\]\.g_x\[4\]\.t\.w_ov
*167 g\.g_y\[0\]\.g_x\[4\]\.t\.w_v
*168 g\.g_y\[0\]\.g_x\[4\]\.t\.w_vb
*169 g\.g_y\[0\]\.g_x\[4\]\.t\.w_vt
*170 g\.g_y\[0\]\.g_x\[5\]\.t\.in_b
*171 g\.g_y\[0\]\.g_x\[5\]\.t\.in_r
*172 g\.g_y\[0\]\.g_x\[5\]\.t\.in_t
*173 g\.g_y\[0\]\.g_x\[5\]\.t\.out_b
*174 g\.g_y\[0\]\.g_x\[5\]\.t\.out_r
*175 g\.g_y\[0\]\.g_x\[5\]\.t\.out_sc
*176 g\.g_y\[0\]\.g_x\[5\]\.t\.out_t
*177 g\.g_y\[0\]\.g_x\[5\]\.t\.w_d
*178 g\.g_y\[0\]\.g_x\[5\]\.t\.w_dh
*179 g\.g_y\[0\]\.g_x\[5\]\.t\.w_dv
*180 g\.g_y\[0\]\.g_x\[5\]\.t\.w_gn
*181 g\.g_y\[0\]\.g_x\[5\]\.t\.w_h
*182 g\.g_y\[0\]\.g_x\[5\]\.t\.w_hl
*183 g\.g_y\[0\]\.g_x\[5\]\.t\.w_hr
*184 g\.g_y\[0\]\.g_x\[5\]\.t\.w_oh
*185 g\.g_y\[0\]\.g_x\[5\]\.t\.w_ov
*186 g\.g_y\[0\]\.g_x\[5\]\.t\.w_v
*187 g\.g_y\[0\]\.g_x\[5\]\.t\.w_vb
*188 g\.g_y\[0\]\.g_x\[5\]\.t\.w_vt
*189 g\.g_y\[0\]\.g_x\[6\]\.t\.in_b
*190 g\.g_y\[0\]\.g_x\[6\]\.t\.in_r
*191 g\.g_y\[0\]\.g_x\[6\]\.t\.in_t
*192 g\.g_y\[0\]\.g_x\[6\]\.t\.out_b
*193 g\.g_y\[0\]\.g_x\[6\]\.t\.out_r
*194 g\.g_y\[0\]\.g_x\[6\]\.t\.out_sc
*195 g\.g_y\[0\]\.g_x\[6\]\.t\.out_t
*196 g\.g_y\[0\]\.g_x\[6\]\.t\.w_d
*197 g\.g_y\[0\]\.g_x\[6\]\.t\.w_dh
*198 g\.g_y\[0\]\.g_x\[6\]\.t\.w_dv
*199 g\.g_y\[0\]\.g_x\[6\]\.t\.w_gh
*200 g\.g_y\[0\]\.g_x\[6\]\.t\.w_gn
*201 g\.g_y\[0\]\.g_x\[6\]\.t\.w_h
*202 g\.g_y\[0\]\.g_x\[6\]\.t\.w_hl
*203 g\.g_y\[0\]\.g_x\[6\]\.t\.w_hr
*204 g\.g_y\[0\]\.g_x\[6\]\.t\.w_na
*205 g\.g_y\[0\]\.g_x\[6\]\.t\.w_oh
*206 g\.g_y\[0\]\.g_x\[6\]\.t\.w_ov
*207 g\.g_y\[0\]\.g_x\[6\]\.t\.w_v
*208 g\.g_y\[0\]\.g_x\[6\]\.t\.w_vb
*209 g\.g_y\[0\]\.g_x\[6\]\.t\.w_vt
*210 g\.g_y\[0\]\.g_x\[7\]\.t\.in_b
*211 g\.g_y\[0\]\.g_x\[7\]\.t\.in_t
*212 g\.g_y\[0\]\.g_x\[7\]\.t\.out_b
*213 g\.g_y\[0\]\.g_x\[7\]\.t\.out_r
*214 g\.g_y\[0\]\.g_x\[7\]\.t\.out_sc
*215 g\.g_y\[0\]\.g_x\[7\]\.t\.out_t
*216 g\.g_y\[0\]\.g_x\[7\]\.t\.w_d
*217 g\.g_y\[0\]\.g_x\[7\]\.t\.w_dh
*218 g\.g_y\[0\]\.g_x\[7\]\.t\.w_dv
*219 g\.g_y\[0\]\.g_x\[7\]\.t\.w_gn
*220 g\.g_y\[0\]\.g_x\[7\]\.t\.w_h
*221 g\.g_y\[0\]\.g_x\[7\]\.t\.w_hl
*222 g\.g_y\[0\]\.g_x\[7\]\.t\.w_hr
*223 g\.g_y\[0\]\.g_x\[7\]\.t\.w_oh
*224 g\.g_y\[0\]\.g_x\[7\]\.t\.w_ov
*225 g\.g_y\[0\]\.g_x\[7\]\.t\.w_v
*226 g\.g_y\[0\]\.g_x\[7\]\.t\.w_vb
*227 g\.g_y\[0\]\.g_x\[7\]\.t\.w_vt
*228 g\.g_y\[1\]\.g_x\[0\]\.t\.in_b
*229 g\.g_y\[1\]\.g_x\[0\]\.t\.in_r
*230 g\.g_y\[1\]\.g_x\[0\]\.t\.out_b
*231 g\.g_y\[1\]\.g_x\[0\]\.t\.out_l
*232 g\.g_y\[1\]\.g_x\[0\]\.t\.out_r
*233 g\.g_y\[1\]\.g_x\[0\]\.t\.out_sc
*234 g\.g_y\[1\]\.g_x\[0\]\.t\.w_d
*235 g\.g_y\[1\]\.g_x\[0\]\.t\.w_dh
*236 g\.g_y\[1\]\.g_x\[0\]\.t\.w_dv
*237 g\.g_y\[1\]\.g_x\[0\]\.t\.w_gn
*238 g\.g_y\[1\]\.g_x\[0\]\.t\.w_h
*239 g\.g_y\[1\]\.g_x\[0\]\.t\.w_hl
*240 g\.g_y\[1\]\.g_x\[0\]\.t\.w_hr
*241 g\.g_y\[1\]\.g_x\[0\]\.t\.w_oh
*242 g\.g_y\[1\]\.g_x\[0\]\.t\.w_ov
*243 g\.g_y\[1\]\.g_x\[0\]\.t\.w_v
*244 g\.g_y\[1\]\.g_x\[0\]\.t\.w_vb
*245 g\.g_y\[1\]\.g_x\[0\]\.t\.w_vt
*246 g\.g_y\[1\]\.g_x\[1\]\.t\.in_b
*247 g\.g_y\[1\]\.g_x\[1\]\.t\.in_lb
*248 g\.g_y\[1\]\.g_x\[1\]\.t\.in_r
*249 g\.g_y\[1\]\.g_x\[1\]\.t\.out_b
*250 g\.g_y\[1\]\.g_x\[1\]\.t\.out_r
*251 g\.g_y\[1\]\.g_x\[1\]\.t\.out_sc
*252 g\.g_y\[1\]\.g_x\[1\]\.t\.w_d
*253 g\.g_y\[1\]\.g_x\[1\]\.t\.w_dh
*254 g\.g_y\[1\]\.g_x\[1\]\.t\.w_dv
*255 g\.g_y\[1\]\.g_x\[1\]\.t\.w_gh
*256 g\.g_y\[1\]\.g_x\[1\]\.t\.w_gn
*257 g\.g_y\[1\]\.g_x\[1\]\.t\.w_h
*258 g\.g_y\[1\]\.g_x\[1\]\.t\.w_hl
*259 g\.g_y\[1\]\.g_x\[1\]\.t\.w_hr
*260 g\.g_y\[1\]\.g_x\[1\]\.t\.w_na
*261 g\.g_y\[1\]\.g_x\[1\]\.t\.w_oh
*262 g\.g_y\[1\]\.g_x\[1\]\.t\.w_ov
*263 g\.g_y\[1\]\.g_x\[1\]\.t\.w_v
*264 g\.g_y\[1\]\.g_x\[1\]\.t\.w_vb
*265 g\.g_y\[1\]\.g_x\[1\]\.t\.w_vt
*266 g\.g_y\[1\]\.g_x\[2\]\.t\.in_b
*267 g\.g_y\[1\]\.g_x\[2\]\.t\.in_r
*268 g\.g_y\[1\]\.g_x\[2\]\.t\.out_b
*269 g\.g_y\[1\]\.g_x\[2\]\.t\.out_r
*270 g\.g_y\[1\]\.g_x\[2\]\.t\.out_sc
*271 g\.g_y\[1\]\.g_x\[2\]\.t\.w_d
*272 g\.g_y\[1\]\.g_x\[2\]\.t\.w_dh
*273 g\.g_y\[1\]\.g_x\[2\]\.t\.w_dv
*274 g\.g_y\[1\]\.g_x\[2\]\.t\.w_gn
*275 g\.g_y\[1\]\.g_x\[2\]\.t\.w_h
*276 g\.g_y\[1\]\.g_x\[2\]\.t\.w_hl
*277 g\.g_y\[1\]\.g_x\[2\]\.t\.w_hr
*278 g\.g_y\[1\]\.g_x\[2\]\.t\.w_oh
*279 g\.g_y\[1\]\.g_x\[2\]\.t\.w_ov
*280 g\.g_y\[1\]\.g_x\[2\]\.t\.w_v
*281 g\.g_y\[1\]\.g_x\[2\]\.t\.w_vb
*282 g\.g_y\[1\]\.g_x\[2\]\.t\.w_vt
*283 g\.g_y\[1\]\.g_x\[3\]\.t\.in_b
*284 g\.g_y\[1\]\.g_x\[3\]\.t\.in_lb
*285 g\.g_y\[1\]\.g_x\[3\]\.t\.in_r
*286 g\.g_y\[1\]\.g_x\[3\]\.t\.out_b
*287 g\.g_y\[1\]\.g_x\[3\]\.t\.out_r
*288 g\.g_y\[1\]\.g_x\[3\]\.t\.out_sc
*289 g\.g_y\[1\]\.g_x\[3\]\.t\.w_d
*290 g\.g_y\[1\]\.g_x\[3\]\.t\.w_dh
*291 g\.g_y\[1\]\.g_x\[3\]\.t\.w_dv
*292 g\.g_y\[1\]\.g_x\[3\]\.t\.w_gh
*293 g\.g_y\[1\]\.g_x\[3\]\.t\.w_gn
*294 g\.g_y\[1\]\.g_x\[3\]\.t\.w_h
*295 g\.g_y\[1\]\.g_x\[3\]\.t\.w_hl
*296 g\.g_y\[1\]\.g_x\[3\]\.t\.w_hr
*297 g\.g_y\[1\]\.g_x\[3\]\.t\.w_na
*298 g\.g_y\[1\]\.g_x\[3\]\.t\.w_oh
*299 g\.g_y\[1\]\.g_x\[3\]\.t\.w_ov
*300 g\.g_y\[1\]\.g_x\[3\]\.t\.w_v
*301 g\.g_y\[1\]\.g_x\[3\]\.t\.w_vb
*302 g\.g_y\[1\]\.g_x\[3\]\.t\.w_vt
*303 g\.g_y\[1\]\.g_x\[4\]\.t\.in_b
*304 g\.g_y\[1\]\.g_x\[4\]\.t\.in_r
*305 g\.g_y\[1\]\.g_x\[4\]\.t\.out_b
*306 g\.g_y\[1\]\.g_x\[4\]\.t\.out_r
*307 g\.g_y\[1\]\.g_x\[4\]\.t\.out_sc
*308 g\.g_y\[1\]\.g_x\[4\]\.t\.w_d
*309 g\.g_y\[1\]\.g_x\[4\]\.t\.w_dh
*310 g\.g_y\[1\]\.g_x\[4\]\.t\.w_dv
*311 g\.g_y\[1\]\.g_x\[4\]\.t\.w_gn
*312 g\.g_y\[1\]\.g_x\[4\]\.t\.w_h
*313 g\.g_y\[1\]\.g_x\[4\]\.t\.w_hl
*314 g\.g_y\[1\]\.g_x\[4\]\.t\.w_hr
*315 g\.g_y\[1\]\.g_x\[4\]\.t\.w_oh
*316 g\.g_y\[1\]\.g_x\[4\]\.t\.w_ov
*317 g\.g_y\[1\]\.g_x\[4\]\.t\.w_v
*318 g\.g_y\[1\]\.g_x\[4\]\.t\.w_vb
*319 g\.g_y\[1\]\.g_x\[4\]\.t\.w_vt
*320 g\.g_y\[1\]\.g_x\[5\]\.t\.in_b
*321 g\.g_y\[1\]\.g_x\[5\]\.t\.in_r
*322 g\.g_y\[1\]\.g_x\[5\]\.t\.out_b
*323 g\.g_y\[1\]\.g_x\[5\]\.t\.out_r
*324 g\.g_y\[1\]\.g_x\[5\]\.t\.out_sc
*325 g\.g_y\[1\]\.g_x\[5\]\.t\.w_d
*326 g\.g_y\[1\]\.g_x\[5\]\.t\.w_dh
*327 g\.g_y\[1\]\.g_x\[5\]\.t\.w_dv
*328 g\.g_y\[1\]\.g_x\[5\]\.t\.w_gh
*329 g\.g_y\[1\]\.g_x\[5\]\.t\.w_gn
*330 g\.g_y\[1\]\.g_x\[5\]\.t\.w_h
*331 g\.g_y\[1\]\.g_x\[5\]\.t\.w_hl
*332 g\.g_y\[1\]\.g_x\[5\]\.t\.w_hr
*333 g\.g_y\[1\]\.g_x\[5\]\.t\.w_na
*334 g\.g_y\[1\]\.g_x\[5\]\.t\.w_oh
*335 g\.g_y\[1\]\.g_x\[5\]\.t\.w_ov
*336 g\.g_y\[1\]\.g_x\[5\]\.t\.w_v
*337 g\.g_y\[1\]\.g_x\[5\]\.t\.w_vb
*338 g\.g_y\[1\]\.g_x\[5\]\.t\.w_vt
*339 g\.g_y\[1\]\.g_x\[6\]\.t\.in_b
*340 g\.g_y\[1\]\.g_x\[6\]\.t\.in_r
*341 g\.g_y\[1\]\.g_x\[6\]\.t\.out_b
*342 g\.g_y\[1\]\.g_x\[6\]\.t\.out_r
*343 g\.g_y\[1\]\.g_x\[6\]\.t\.out_sc
*344 g\.g_y\[1\]\.g_x\[6\]\.t\.w_d
*345 g\.g_y\[1\]\.g_x\[6\]\.t\.w_dh
*346 g\.g_y\[1\]\.g_x\[6\]\.t\.w_dv
*347 g\.g_y\[1\]\.g_x\[6\]\.t\.w_gn
*348 g\.g_y\[1\]\.g_x\[6\]\.t\.w_h
*349 g\.g_y\[1\]\.g_x\[6\]\.t\.w_hl
*350 g\.g_y\[1\]\.g_x\[6\]\.t\.w_hr
*351 g\.g_y\[1\]\.g_x\[6\]\.t\.w_oh
*352 g\.g_y\[1\]\.g_x\[6\]\.t\.w_ov
*353 g\.g_y\[1\]\.g_x\[6\]\.t\.w_v
*354 g\.g_y\[1\]\.g_x\[6\]\.t\.w_vb
*355 g\.g_y\[1\]\.g_x\[6\]\.t\.w_vt
*356 g\.g_y\[1\]\.g_x\[7\]\.t\.in_b
*357 g\.g_y\[1\]\.g_x\[7\]\.t\.out_b
*358 g\.g_y\[1\]\.g_x\[7\]\.t\.out_r
*359 g\.g_y\[1\]\.g_x\[7\]\.t\.out_sc
*360 g\.g_y\[1\]\.g_x\[7\]\.t\.w_d
*361 g\.g_y\[1\]\.g_x\[7\]\.t\.w_dh
*362 g\.g_y\[1\]\.g_x\[7\]\.t\.w_dv
*363 g\.g_y\[1\]\.g_x\[7\]\.t\.w_gh
*364 g\.g_y\[1\]\.g_x\[7\]\.t\.w_gn
*365 g\.g_y\[1\]\.g_x\[7\]\.t\.w_h
*366 g\.g_y\[1\]\.g_x\[7\]\.t\.w_hl
*367 g\.g_y\[1\]\.g_x\[7\]\.t\.w_hr
*368 g\.g_y\[1\]\.g_x\[7\]\.t\.w_na
*369 g\.g_y\[1\]\.g_x\[7\]\.t\.w_oh
*370 g\.g_y\[1\]\.g_x\[7\]\.t\.w_ov
*371 g\.g_y\[1\]\.g_x\[7\]\.t\.w_v
*372 g\.g_y\[1\]\.g_x\[7\]\.t\.w_vb
*373 g\.g_y\[1\]\.g_x\[7\]\.t\.w_vt
*374 g\.g_y\[2\]\.g_x\[0\]\.t\.in_b
*375 g\.g_y\[2\]\.g_x\[0\]\.t\.in_r
*376 g\.g_y\[2\]\.g_x\[0\]\.t\.out_b
*377 g\.g_y\[2\]\.g_x\[0\]\.t\.out_l
*378 g\.g_y\[2\]\.g_x\[0\]\.t\.out_r
*379 g\.g_y\[2\]\.g_x\[0\]\.t\.out_sc
*380 g\.g_y\[2\]\.g_x\[0\]\.t\.w_d
*381 g\.g_y\[2\]\.g_x\[0\]\.t\.w_dh
*382 g\.g_y\[2\]\.g_x\[0\]\.t\.w_dv
*383 g\.g_y\[2\]\.g_x\[0\]\.t\.w_gh
*384 g\.g_y\[2\]\.g_x\[0\]\.t\.w_gn
*385 g\.g_y\[2\]\.g_x\[0\]\.t\.w_h
*386 g\.g_y\[2\]\.g_x\[0\]\.t\.w_hl
*387 g\.g_y\[2\]\.g_x\[0\]\.t\.w_hr
*388 g\.g_y\[2\]\.g_x\[0\]\.t\.w_na
*389 g\.g_y\[2\]\.g_x\[0\]\.t\.w_oh
*390 g\.g_y\[2\]\.g_x\[0\]\.t\.w_ov
*391 g\.g_y\[2\]\.g_x\[0\]\.t\.w_v
*392 g\.g_y\[2\]\.g_x\[0\]\.t\.w_vb
*393 g\.g_y\[2\]\.g_x\[0\]\.t\.w_vt
*394 g\.g_y\[2\]\.g_x\[1\]\.t\.in_b
*395 g\.g_y\[2\]\.g_x\[1\]\.t\.in_r
*396 g\.g_y\[2\]\.g_x\[1\]\.t\.out_b
*397 g\.g_y\[2\]\.g_x\[1\]\.t\.out_r
*398 g\.g_y\[2\]\.g_x\[1\]\.t\.out_sc
*399 g\.g_y\[2\]\.g_x\[1\]\.t\.w_d
*400 g\.g_y\[2\]\.g_x\[1\]\.t\.w_dh
*401 g\.g_y\[2\]\.g_x\[1\]\.t\.w_dv
*402 g\.g_y\[2\]\.g_x\[1\]\.t\.w_gn
*403 g\.g_y\[2\]\.g_x\[1\]\.t\.w_h
*404 g\.g_y\[2\]\.g_x\[1\]\.t\.w_hl
*405 g\.g_y\[2\]\.g_x\[1\]\.t\.w_hr
*406 g\.g_y\[2\]\.g_x\[1\]\.t\.w_oh
*407 g\.g_y\[2\]\.g_x\[1\]\.t\.w_ov
*408 g\.g_y\[2\]\.g_x\[1\]\.t\.w_v
*409 g\.g_y\[2\]\.g_x\[1\]\.t\.w_vb
*410 g\.g_y\[2\]\.g_x\[1\]\.t\.w_vt
*411 g\.g_y\[2\]\.g_x\[2\]\.t\.in_b
*412 g\.g_y\[2\]\.g_x\[2\]\.t\.in_r
*413 g\.g_y\[2\]\.g_x\[2\]\.t\.out_b
*414 g\.g_y\[2\]\.g_x\[2\]\.t\.out_r
*415 g\.g_y\[2\]\.g_x\[2\]\.t\.out_sc
*416 g\.g_y\[2\]\.g_x\[2\]\.t\.w_d
*417 g\.g_y\[2\]\.g_x\[2\]\.t\.w_dh
*418 g\.g_y\[2\]\.g_x\[2\]\.t\.w_dv
*419 g\.g_y\[2\]\.g_x\[2\]\.t\.w_gh
*420 g\.g_y\[2\]\.g_x\[2\]\.t\.w_gn
*421 g\.g_y\[2\]\.g_x\[2\]\.t\.w_h
*422 g\.g_y\[2\]\.g_x\[2\]\.t\.w_hl
*423 g\.g_y\[2\]\.g_x\[2\]\.t\.w_hr
*424 g\.g_y\[2\]\.g_x\[2\]\.t\.w_na
*425 g\.g_y\[2\]\.g_x\[2\]\.t\.w_oh
*426 g\.g_y\[2\]\.g_x\[2\]\.t\.w_ov
*427 g\.g_y\[2\]\.g_x\[2\]\.t\.w_v
*428 g\.g_y\[2\]\.g_x\[2\]\.t\.w_vb
*429 g\.g_y\[2\]\.g_x\[2\]\.t\.w_vt
*430 g\.g_y\[2\]\.g_x\[3\]\.t\.in_b
*431 g\.g_y\[2\]\.g_x\[3\]\.t\.in_r
*432 g\.g_y\[2\]\.g_x\[3\]\.t\.out_b
*433 g\.g_y\[2\]\.g_x\[3\]\.t\.out_r
*434 g\.g_y\[2\]\.g_x\[3\]\.t\.out_sc
*435 g\.g_y\[2\]\.g_x\[3\]\.t\.w_d
*436 g\.g_y\[2\]\.g_x\[3\]\.t\.w_dh
*437 g\.g_y\[2\]\.g_x\[3\]\.t\.w_dv
*438 g\.g_y\[2\]\.g_x\[3\]\.t\.w_gn
*439 g\.g_y\[2\]\.g_x\[3\]\.t\.w_h
*440 g\.g_y\[2\]\.g_x\[3\]\.t\.w_hl
*441 g\.g_y\[2\]\.g_x\[3\]\.t\.w_hr
*442 g\.g_y\[2\]\.g_x\[3\]\.t\.w_oh
*443 g\.g_y\[2\]\.g_x\[3\]\.t\.w_ov
*444 g\.g_y\[2\]\.g_x\[3\]\.t\.w_v
*445 g\.g_y\[2\]\.g_x\[3\]\.t\.w_vb
*446 g\.g_y\[2\]\.g_x\[3\]\.t\.w_vt
*447 g\.g_y\[2\]\.g_x\[4\]\.t\.in_b
*448 g\.g_y\[2\]\.g_x\[4\]\.t\.in_r
*449 g\.g_y\[2\]\.g_x\[4\]\.t\.out_b
*450 g\.g_y\[2\]\.g_x\[4\]\.t\.out_r
*451 g\.g_y\[2\]\.g_x\[4\]\.t\.out_sc
*452 g\.g_y\[2\]\.g_x\[4\]\.t\.w_d
*453 g\.g_y\[2\]\.g_x\[4\]\.t\.w_dh
*454 g\.g_y\[2\]\.g_x\[4\]\.t\.w_dv
*455 g\.g_y\[2\]\.g_x\[4\]\.t\.w_gh
*456 g\.g_y\[2\]\.g_x\[4\]\.t\.w_gn
*457 g\.g_y\[2\]\.g_x\[4\]\.t\.w_h
*458 g\.g_y\[2\]\.g_x\[4\]\.t\.w_hl
*459 g\.g_y\[2\]\.g_x\[4\]\.t\.w_hr
*460 g\.g_y\[2\]\.g_x\[4\]\.t\.w_na
*461 g\.g_y\[2\]\.g_x\[4\]\.t\.w_oh
*462 g\.g_y\[2\]\.g_x\[4\]\.t\.w_ov
*463 g\.g_y\[2\]\.g_x\[4\]\.t\.w_v
*464 g\.g_y\[2\]\.g_x\[4\]\.t\.w_vb
*465 g\.g_y\[2\]\.g_x\[4\]\.t\.w_vt
*466 g\.g_y\[2\]\.g_x\[5\]\.t\.in_b
*467 g\.g_y\[2\]\.g_x\[5\]\.t\.in_r
*468 g\.g_y\[2\]\.g_x\[5\]\.t\.out_b
*469 g\.g_y\[2\]\.g_x\[5\]\.t\.out_r
*470 g\.g_y\[2\]\.g_x\[5\]\.t\.out_sc
*471 g\.g_y\[2\]\.g_x\[5\]\.t\.w_d
*472 g\.g_y\[2\]\.g_x\[5\]\.t\.w_dh
*473 g\.g_y\[2\]\.g_x\[5\]\.t\.w_dv
*474 g\.g_y\[2\]\.g_x\[5\]\.t\.w_gn
*475 g\.g_y\[2\]\.g_x\[5\]\.t\.w_h
*476 g\.g_y\[2\]\.g_x\[5\]\.t\.w_hl
*477 g\.g_y\[2\]\.g_x\[5\]\.t\.w_hr
*478 g\.g_y\[2\]\.g_x\[5\]\.t\.w_oh
*479 g\.g_y\[2\]\.g_x\[5\]\.t\.w_ov
*480 g\.g_y\[2\]\.g_x\[5\]\.t\.w_v
*481 g\.g_y\[2\]\.g_x\[5\]\.t\.w_vb
*482 g\.g_y\[2\]\.g_x\[5\]\.t\.w_vt
*483 g\.g_y\[2\]\.g_x\[6\]\.t\.in_b
*484 g\.g_y\[2\]\.g_x\[6\]\.t\.in_r
*485 g\.g_y\[2\]\.g_x\[6\]\.t\.out_b
*486 g\.g_y\[2\]\.g_x\[6\]\.t\.out_r
*487 g\.g_y\[2\]\.g_x\[6\]\.t\.out_sc
*488 g\.g_y\[2\]\.g_x\[6\]\.t\.w_d
*489 g\.g_y\[2\]\.g_x\[6\]\.t\.w_dh
*490 g\.g_y\[2\]\.g_x\[6\]\.t\.w_dv
*491 g\.g_y\[2\]\.g_x\[6\]\.t\.w_gh
*492 g\.g_y\[2\]\.g_x\[6\]\.t\.w_gn
*493 g\.g_y\[2\]\.g_x\[6\]\.t\.w_h
*494 g\.g_y\[2\]\.g_x\[6\]\.t\.w_hl
*495 g\.g_y\[2\]\.g_x\[6\]\.t\.w_hr
*496 g\.g_y\[2\]\.g_x\[6\]\.t\.w_na
*497 g\.g_y\[2\]\.g_x\[6\]\.t\.w_oh
*498 g\.g_y\[2\]\.g_x\[6\]\.t\.w_ov
*499 g\.g_y\[2\]\.g_x\[6\]\.t\.w_v
*500 g\.g_y\[2\]\.g_x\[6\]\.t\.w_vb
*501 g\.g_y\[2\]\.g_x\[6\]\.t\.w_vt
*502 g\.g_y\[2\]\.g_x\[7\]\.t\.in_b
*503 g\.g_y\[2\]\.g_x\[7\]\.t\.out_b
*504 g\.g_y\[2\]\.g_x\[7\]\.t\.out_r
*505 g\.g_y\[2\]\.g_x\[7\]\.t\.out_sc
*506 g\.g_y\[2\]\.g_x\[7\]\.t\.w_d
*507 g\.g_y\[2\]\.g_x\[7\]\.t\.w_dh
*508 g\.g_y\[2\]\.g_x\[7\]\.t\.w_dv
*509 g\.g_y\[2\]\.g_x\[7\]\.t\.w_gn
*510 g\.g_y\[2\]\.g_x\[7\]\.t\.w_h
*511 g\.g_y\[2\]\.g_x\[7\]\.t\.w_hl
*512 g\.g_y\[2\]\.g_x\[7\]\.t\.w_hr
*513 g\.g_y\[2\]\.g_x\[7\]\.t\.w_oh
*514 g\.g_y\[2\]\.g_x\[7\]\.t\.w_ov
*515 g\.g_y\[2\]\.g_x\[7\]\.t\.w_v
*516 g\.g_y\[2\]\.g_x\[7\]\.t\.w_vb
*517 g\.g_y\[2\]\.g_x\[7\]\.t\.w_vt
*518 g\.g_y\[3\]\.g_x\[0\]\.t\.in_b
*519 g\.g_y\[3\]\.g_x\[0\]\.t\.in_r
*520 g\.g_y\[3\]\.g_x\[0\]\.t\.out_b
*521 g\.g_y\[3\]\.g_x\[0\]\.t\.out_l
*522 g\.g_y\[3\]\.g_x\[0\]\.t\.out_r
*523 g\.g_y\[3\]\.g_x\[0\]\.t\.out_sc
*524 g\.g_y\[3\]\.g_x\[0\]\.t\.w_d
*525 g\.g_y\[3\]\.g_x\[0\]\.t\.w_dh
*526 g\.g_y\[3\]\.g_x\[0\]\.t\.w_dv
*527 g\.g_y\[3\]\.g_x\[0\]\.t\.w_gn
*528 g\.g_y\[3\]\.g_x\[0\]\.t\.w_h
*529 g\.g_y\[3\]\.g_x\[0\]\.t\.w_hl
*530 g\.g_y\[3\]\.g_x\[0\]\.t\.w_hr
*531 g\.g_y\[3\]\.g_x\[0\]\.t\.w_oh
*532 g\.g_y\[3\]\.g_x\[0\]\.t\.w_ov
*533 g\.g_y\[3\]\.g_x\[0\]\.t\.w_v
*534 g\.g_y\[3\]\.g_x\[0\]\.t\.w_vb
*535 g\.g_y\[3\]\.g_x\[0\]\.t\.w_vt
*536 g\.g_y\[3\]\.g_x\[1\]\.t\.in_b
*537 g\.g_y\[3\]\.g_x\[1\]\.t\.in_r
*538 g\.g_y\[3\]\.g_x\[1\]\.t\.out_b
*539 g\.g_y\[3\]\.g_x\[1\]\.t\.out_r
*540 g\.g_y\[3\]\.g_x\[1\]\.t\.out_sc
*541 g\.g_y\[3\]\.g_x\[1\]\.t\.w_d
*542 g\.g_y\[3\]\.g_x\[1\]\.t\.w_dh
*543 g\.g_y\[3\]\.g_x\[1\]\.t\.w_dv
*544 g\.g_y\[3\]\.g_x\[1\]\.t\.w_gh
*545 g\.g_y\[3\]\.g_x\[1\]\.t\.w_gn
*546 g\.g_y\[3\]\.g_x\[1\]\.t\.w_h
*547 g\.g_y\[3\]\.g_x\[1\]\.t\.w_hl
*548 g\.g_y\[3\]\.g_x\[1\]\.t\.w_hr
*549 g\.g_y\[3\]\.g_x\[1\]\.t\.w_na
*550 g\.g_y\[3\]\.g_x\[1\]\.t\.w_oh
*551 g\.g_y\[3\]\.g_x\[1\]\.t\.w_ov
*552 g\.g_y\[3\]\.g_x\[1\]\.t\.w_v
*553 g\.g_y\[3\]\.g_x\[1\]\.t\.w_vb
*554 g\.g_y\[3\]\.g_x\[1\]\.t\.w_vt
*555 g\.g_y\[3\]\.g_x\[2\]\.t\.in_b
*556 g\.g_y\[3\]\.g_x\[2\]\.t\.in_r
*557 g\.g_y\[3\]\.g_x\[2\]\.t\.out_b
*558 g\.g_y\[3\]\.g_x\[2\]\.t\.out_r
*559 g\.g_y\[3\]\.g_x\[2\]\.t\.out_sc
*560 g\.g_y\[3\]\.g_x\[2\]\.t\.w_d
*561 g\.g_y\[3\]\.g_x\[2\]\.t\.w_dh
*562 g\.g_y\[3\]\.g_x\[2\]\.t\.w_dv
*563 g\.g_y\[3\]\.g_x\[2\]\.t\.w_gn
*564 g\.g_y\[3\]\.g_x\[2\]\.t\.w_h
*565 g\.g_y\[3\]\.g_x\[2\]\.t\.w_hl
*566 g\.g_y\[3\]\.g_x\[2\]\.t\.w_hr
*567 g\.g_y\[3\]\.g_x\[2\]\.t\.w_oh
*568 g\.g_y\[3\]\.g_x\[2\]\.t\.w_ov
*569 g\.g_y\[3\]\.g_x\[2\]\.t\.w_v
*570 g\.g_y\[3\]\.g_x\[2\]\.t\.w_vb
*571 g\.g_y\[3\]\.g_x\[2\]\.t\.w_vt
*572 g\.g_y\[3\]\.g_x\[3\]\.t\.in_b
*573 g\.g_y\[3\]\.g_x\[3\]\.t\.in_r
*574 g\.g_y\[3\]\.g_x\[3\]\.t\.out_b
*575 g\.g_y\[3\]\.g_x\[3\]\.t\.out_r
*576 g\.g_y\[3\]\.g_x\[3\]\.t\.out_sc
*577 g\.g_y\[3\]\.g_x\[3\]\.t\.w_d
*578 g\.g_y\[3\]\.g_x\[3\]\.t\.w_dh
*579 g\.g_y\[3\]\.g_x\[3\]\.t\.w_dv
*580 g\.g_y\[3\]\.g_x\[3\]\.t\.w_gh
*581 g\.g_y\[3\]\.g_x\[3\]\.t\.w_gn
*582 g\.g_y\[3\]\.g_x\[3\]\.t\.w_h
*583 g\.g_y\[3\]\.g_x\[3\]\.t\.w_hl
*584 g\.g_y\[3\]\.g_x\[3\]\.t\.w_hr
*585 g\.g_y\[3\]\.g_x\[3\]\.t\.w_na
*586 g\.g_y\[3\]\.g_x\[3\]\.t\.w_oh
*587 g\.g_y\[3\]\.g_x\[3\]\.t\.w_ov
*588 g\.g_y\[3\]\.g_x\[3\]\.t\.w_v
*589 g\.g_y\[3\]\.g_x\[3\]\.t\.w_vb
*590 g\.g_y\[3\]\.g_x\[3\]\.t\.w_vt
*591 g\.g_y\[3\]\.g_x\[4\]\.t\.in_b
*592 g\.g_y\[3\]\.g_x\[4\]\.t\.in_r
*593 g\.g_y\[3\]\.g_x\[4\]\.t\.out_b
*594 g\.g_y\[3\]\.g_x\[4\]\.t\.out_r
*595 g\.g_y\[3\]\.g_x\[4\]\.t\.out_sc
*596 g\.g_y\[3\]\.g_x\[4\]\.t\.w_d
*597 g\.g_y\[3\]\.g_x\[4\]\.t\.w_dh
*598 g\.g_y\[3\]\.g_x\[4\]\.t\.w_dv
*599 g\.g_y\[3\]\.g_x\[4\]\.t\.w_gn
*600 g\.g_y\[3\]\.g_x\[4\]\.t\.w_h
*601 g\.g_y\[3\]\.g_x\[4\]\.t\.w_hl
*602 g\.g_y\[3\]\.g_x\[4\]\.t\.w_hr
*603 g\.g_y\[3\]\.g_x\[4\]\.t\.w_oh
*604 g\.g_y\[3\]\.g_x\[4\]\.t\.w_ov
*605 g\.g_y\[3\]\.g_x\[4\]\.t\.w_v
*606 g\.g_y\[3\]\.g_x\[4\]\.t\.w_vb
*607 g\.g_y\[3\]\.g_x\[4\]\.t\.w_vt
*608 g\.g_y\[3\]\.g_x\[5\]\.t\.in_b
*609 g\.g_y\[3\]\.g_x\[5\]\.t\.in_r
*610 g\.g_y\[3\]\.g_x\[5\]\.t\.out_b
*611 g\.g_y\[3\]\.g_x\[5\]\.t\.out_r
*612 g\.g_y\[3\]\.g_x\[5\]\.t\.out_sc
*613 g\.g_y\[3\]\.g_x\[5\]\.t\.w_d
*614 g\.g_y\[3\]\.g_x\[5\]\.t\.w_dh
*615 g\.g_y\[3\]\.g_x\[5\]\.t\.w_dv
*616 g\.g_y\[3\]\.g_x\[5\]\.t\.w_gh
*617 g\.g_y\[3\]\.g_x\[5\]\.t\.w_gn
*618 g\.g_y\[3\]\.g_x\[5\]\.t\.w_h
*619 g\.g_y\[3\]\.g_x\[5\]\.t\.w_hl
*620 g\.g_y\[3\]\.g_x\[5\]\.t\.w_hr
*621 g\.g_y\[3\]\.g_x\[5\]\.t\.w_na
*622 g\.g_y\[3\]\.g_x\[5\]\.t\.w_oh
*623 g\.g_y\[3\]\.g_x\[5\]\.t\.w_ov
*624 g\.g_y\[3\]\.g_x\[5\]\.t\.w_v
*625 g\.g_y\[3\]\.g_x\[5\]\.t\.w_vb
*626 g\.g_y\[3\]\.g_x\[5\]\.t\.w_vt
*627 g\.g_y\[3\]\.g_x\[6\]\.t\.in_b
*628 g\.g_y\[3\]\.g_x\[6\]\.t\.in_r
*629 g\.g_y\[3\]\.g_x\[6\]\.t\.out_b
*630 g\.g_y\[3\]\.g_x\[6\]\.t\.out_r
*631 g\.g_y\[3\]\.g_x\[6\]\.t\.out_sc
*632 g\.g_y\[3\]\.g_x\[6\]\.t\.w_d
*633 g\.g_y\[3\]\.g_x\[6\]\.t\.w_dh
*634 g\.g_y\[3\]\.g_x\[6\]\.t\.w_dv
*635 g\.g_y\[3\]\.g_x\[6\]\.t\.w_gn
*636 g\.g_y\[3\]\.g_x\[6\]\.t\.w_h
*637 g\.g_y\[3\]\.g_x\[6\]\.t\.w_hl
*638 g\.g_y\[3\]\.g_x\[6\]\.t\.w_hr
*639 g\.g_y\[3\]\.g_x\[6\]\.t\.w_oh
*640 g\.g_y\[3\]\.g_x\[6\]\.t\.w_ov
*641 g\.g_y\[3\]\.g_x\[6\]\.t\.w_v
*642 g\.g_y\[3\]\.g_x\[6\]\.t\.w_vb
*643 g\.g_y\[3\]\.g_x\[6\]\.t\.w_vt
*644 g\.g_y\[3\]\.g_x\[7\]\.t\.in_b
*645 g\.g_y\[3\]\.g_x\[7\]\.t\.out_b
*646 g\.g_y\[3\]\.g_x\[7\]\.t\.out_r
*647 g\.g_y\[3\]\.g_x\[7\]\.t\.out_sc
*648 g\.g_y\[3\]\.g_x\[7\]\.t\.w_d
*649 g\.g_y\[3\]\.g_x\[7\]\.t\.w_dh
*650 g\.g_y\[3\]\.g_x\[7\]\.t\.w_dv
*651 g\.g_y\[3\]\.g_x\[7\]\.t\.w_gh
*652 g\.g_y\[3\]\.g_x\[7\]\.t\.w_gn
*653 g\.g_y\[3\]\.g_x\[7\]\.t\.w_h
*654 g\.g_y\[3\]\.g_x\[7\]\.t\.w_hl
*655 g\.g_y\[3\]\.g_x\[7\]\.t\.w_hr
*656 g\.g_y\[3\]\.g_x\[7\]\.t\.w_na
*657 g\.g_y\[3\]\.g_x\[7\]\.t\.w_oh
*658 g\.g_y\[3\]\.g_x\[7\]\.t\.w_ov
*659 g\.g_y\[3\]\.g_x\[7\]\.t\.w_v
*660 g\.g_y\[3\]\.g_x\[7\]\.t\.w_vb
*661 g\.g_y\[3\]\.g_x\[7\]\.t\.w_vt
*662 g\.g_y\[4\]\.g_x\[0\]\.t\.in_b
*663 g\.g_y\[4\]\.g_x\[0\]\.t\.in_r
*664 g\.g_y\[4\]\.g_x\[0\]\.t\.out_b
*665 g\.g_y\[4\]\.g_x\[0\]\.t\.out_l
*666 g\.g_y\[4\]\.g_x\[0\]\.t\.out_r
*667 g\.g_y\[4\]\.g_x\[0\]\.t\.out_sc
*668 g\.g_y\[4\]\.g_x\[0\]\.t\.w_d
*669 g\.g_y\[4\]\.g_x\[0\]\.t\.w_dh
*670 g\.g_y\[4\]\.g_x\[0\]\.t\.w_dv
*671 g\.g_y\[4\]\.g_x\[0\]\.t\.w_gh
*672 g\.g_y\[4\]\.g_x\[0\]\.t\.w_gn
*673 g\.g_y\[4\]\.g_x\[0\]\.t\.w_h
*674 g\.g_y\[4\]\.g_x\[0\]\.t\.w_hl
*675 g\.g_y\[4\]\.g_x\[0\]\.t\.w_hr
*676 g\.g_y\[4\]\.g_x\[0\]\.t\.w_na
*677 g\.g_y\[4\]\.g_x\[0\]\.t\.w_oh
*678 g\.g_y\[4\]\.g_x\[0\]\.t\.w_ov
*679 g\.g_y\[4\]\.g_x\[0\]\.t\.w_v
*680 g\.g_y\[4\]\.g_x\[0\]\.t\.w_vb
*681 g\.g_y\[4\]\.g_x\[0\]\.t\.w_vt
*682 g\.g_y\[4\]\.g_x\[1\]\.t\.in_b
*683 g\.g_y\[4\]\.g_x\[1\]\.t\.in_r
*684 g\.g_y\[4\]\.g_x\[1\]\.t\.out_b
*685 g\.g_y\[4\]\.g_x\[1\]\.t\.out_r
*686 g\.g_y\[4\]\.g_x\[1\]\.t\.out_sc
*687 g\.g_y\[4\]\.g_x\[1\]\.t\.w_d
*688 g\.g_y\[4\]\.g_x\[1\]\.t\.w_dh
*689 g\.g_y\[4\]\.g_x\[1\]\.t\.w_dv
*690 g\.g_y\[4\]\.g_x\[1\]\.t\.w_gn
*691 g\.g_y\[4\]\.g_x\[1\]\.t\.w_h
*692 g\.g_y\[4\]\.g_x\[1\]\.t\.w_hl
*693 g\.g_y\[4\]\.g_x\[1\]\.t\.w_hr
*694 g\.g_y\[4\]\.g_x\[1\]\.t\.w_oh
*695 g\.g_y\[4\]\.g_x\[1\]\.t\.w_ov
*696 g\.g_y\[4\]\.g_x\[1\]\.t\.w_v
*697 g\.g_y\[4\]\.g_x\[1\]\.t\.w_vb
*698 g\.g_y\[4\]\.g_x\[1\]\.t\.w_vt
*699 g\.g_y\[4\]\.g_x\[2\]\.t\.in_b
*700 g\.g_y\[4\]\.g_x\[2\]\.t\.in_r
*701 g\.g_y\[4\]\.g_x\[2\]\.t\.out_b
*702 g\.g_y\[4\]\.g_x\[2\]\.t\.out_r
*703 g\.g_y\[4\]\.g_x\[2\]\.t\.out_sc
*704 g\.g_y\[4\]\.g_x\[2\]\.t\.w_d
*705 g\.g_y\[4\]\.g_x\[2\]\.t\.w_dh
*706 g\.g_y\[4\]\.g_x\[2\]\.t\.w_dv
*707 g\.g_y\[4\]\.g_x\[2\]\.t\.w_gh
*708 g\.g_y\[4\]\.g_x\[2\]\.t\.w_gn
*709 g\.g_y\[4\]\.g_x\[2\]\.t\.w_h
*710 g\.g_y\[4\]\.g_x\[2\]\.t\.w_hl
*711 g\.g_y\[4\]\.g_x\[2\]\.t\.w_hr
*712 g\.g_y\[4\]\.g_x\[2\]\.t\.w_na
*713 g\.g_y\[4\]\.g_x\[2\]\.t\.w_oh
*714 g\.g_y\[4\]\.g_x\[2\]\.t\.w_ov
*715 g\.g_y\[4\]\.g_x\[2\]\.t\.w_v
*716 g\.g_y\[4\]\.g_x\[2\]\.t\.w_vb
*717 g\.g_y\[4\]\.g_x\[2\]\.t\.w_vt
*718 g\.g_y\[4\]\.g_x\[3\]\.t\.in_b
*719 g\.g_y\[4\]\.g_x\[3\]\.t\.in_r
*720 g\.g_y\[4\]\.g_x\[3\]\.t\.out_b
*721 g\.g_y\[4\]\.g_x\[3\]\.t\.out_r
*722 g\.g_y\[4\]\.g_x\[3\]\.t\.out_sc
*723 g\.g_y\[4\]\.g_x\[3\]\.t\.w_d
*724 g\.g_y\[4\]\.g_x\[3\]\.t\.w_dh
*725 g\.g_y\[4\]\.g_x\[3\]\.t\.w_dv
*726 g\.g_y\[4\]\.g_x\[3\]\.t\.w_gn
*727 g\.g_y\[4\]\.g_x\[3\]\.t\.w_h
*728 g\.g_y\[4\]\.g_x\[3\]\.t\.w_hl
*729 g\.g_y\[4\]\.g_x\[3\]\.t\.w_hr
*730 g\.g_y\[4\]\.g_x\[3\]\.t\.w_oh
*731 g\.g_y\[4\]\.g_x\[3\]\.t\.w_ov
*732 g\.g_y\[4\]\.g_x\[3\]\.t\.w_v
*733 g\.g_y\[4\]\.g_x\[3\]\.t\.w_vb
*734 g\.g_y\[4\]\.g_x\[3\]\.t\.w_vt
*735 g\.g_y\[4\]\.g_x\[4\]\.t\.in_b
*736 g\.g_y\[4\]\.g_x\[4\]\.t\.in_r
*737 g\.g_y\[4\]\.g_x\[4\]\.t\.out_b
*738 g\.g_y\[4\]\.g_x\[4\]\.t\.out_r
*739 g\.g_y\[4\]\.g_x\[4\]\.t\.out_sc
*740 g\.g_y\[4\]\.g_x\[4\]\.t\.w_d
*741 g\.g_y\[4\]\.g_x\[4\]\.t\.w_dh
*742 g\.g_y\[4\]\.g_x\[4\]\.t\.w_dv
*743 g\.g_y\[4\]\.g_x\[4\]\.t\.w_gh
*744 g\.g_y\[4\]\.g_x\[4\]\.t\.w_gn
*745 g\.g_y\[4\]\.g_x\[4\]\.t\.w_h
*746 g\.g_y\[4\]\.g_x\[4\]\.t\.w_hl
*747 g\.g_y\[4\]\.g_x\[4\]\.t\.w_hr
*748 g\.g_y\[4\]\.g_x\[4\]\.t\.w_na
*749 g\.g_y\[4\]\.g_x\[4\]\.t\.w_oh
*750 g\.g_y\[4\]\.g_x\[4\]\.t\.w_ov
*751 g\.g_y\[4\]\.g_x\[4\]\.t\.w_v
*752 g\.g_y\[4\]\.g_x\[4\]\.t\.w_vb
*753 g\.g_y\[4\]\.g_x\[4\]\.t\.w_vt
*754 g\.g_y\[4\]\.g_x\[5\]\.t\.in_b
*755 g\.g_y\[4\]\.g_x\[5\]\.t\.in_r
*756 g\.g_y\[4\]\.g_x\[5\]\.t\.out_b
*757 g\.g_y\[4\]\.g_x\[5\]\.t\.out_r
*758 g\.g_y\[4\]\.g_x\[5\]\.t\.out_sc
*759 g\.g_y\[4\]\.g_x\[5\]\.t\.w_d
*760 g\.g_y\[4\]\.g_x\[5\]\.t\.w_dh
*761 g\.g_y\[4\]\.g_x\[5\]\.t\.w_dv
*762 g\.g_y\[4\]\.g_x\[5\]\.t\.w_gn
*763 g\.g_y\[4\]\.g_x\[5\]\.t\.w_h
*764 g\.g_y\[4\]\.g_x\[5\]\.t\.w_hl
*765 g\.g_y\[4\]\.g_x\[5\]\.t\.w_hr
*766 g\.g_y\[4\]\.g_x\[5\]\.t\.w_oh
*767 g\.g_y\[4\]\.g_x\[5\]\.t\.w_ov
*768 g\.g_y\[4\]\.g_x\[5\]\.t\.w_v
*769 g\.g_y\[4\]\.g_x\[5\]\.t\.w_vb
*770 g\.g_y\[4\]\.g_x\[5\]\.t\.w_vt
*771 g\.g_y\[4\]\.g_x\[6\]\.t\.in_b
*772 g\.g_y\[4\]\.g_x\[6\]\.t\.in_r
*773 g\.g_y\[4\]\.g_x\[6\]\.t\.out_b
*774 g\.g_y\[4\]\.g_x\[6\]\.t\.out_r
*775 g\.g_y\[4\]\.g_x\[6\]\.t\.out_sc
*776 g\.g_y\[4\]\.g_x\[6\]\.t\.w_d
*777 g\.g_y\[4\]\.g_x\[6\]\.t\.w_dh
*778 g\.g_y\[4\]\.g_x\[6\]\.t\.w_dv
*779 g\.g_y\[4\]\.g_x\[6\]\.t\.w_gh
*780 g\.g_y\[4\]\.g_x\[6\]\.t\.w_gn
*781 g\.g_y\[4\]\.g_x\[6\]\.t\.w_h
*782 g\.g_y\[4\]\.g_x\[6\]\.t\.w_hl
*783 g\.g_y\[4\]\.g_x\[6\]\.t\.w_hr
*784 g\.g_y\[4\]\.g_x\[6\]\.t\.w_na
*785 g\.g_y\[4\]\.g_x\[6\]\.t\.w_oh
*786 g\.g_y\[4\]\.g_x\[6\]\.t\.w_ov
*787 g\.g_y\[4\]\.g_x\[6\]\.t\.w_v
*788 g\.g_y\[4\]\.g_x\[6\]\.t\.w_vb
*789 g\.g_y\[4\]\.g_x\[6\]\.t\.w_vt
*790 g\.g_y\[4\]\.g_x\[7\]\.t\.in_b
*791 g\.g_y\[4\]\.g_x\[7\]\.t\.out_b
*792 g\.g_y\[4\]\.g_x\[7\]\.t\.out_r
*793 g\.g_y\[4\]\.g_x\[7\]\.t\.out_sc
*794 g\.g_y\[4\]\.g_x\[7\]\.t\.w_d
*795 g\.g_y\[4\]\.g_x\[7\]\.t\.w_dh
*796 g\.g_y\[4\]\.g_x\[7\]\.t\.w_dv
*797 g\.g_y\[4\]\.g_x\[7\]\.t\.w_gn
*798 g\.g_y\[4\]\.g_x\[7\]\.t\.w_h
*799 g\.g_y\[4\]\.g_x\[7\]\.t\.w_hl
*800 g\.g_y\[4\]\.g_x\[7\]\.t\.w_hr
*801 g\.g_y\[4\]\.g_x\[7\]\.t\.w_oh
*802 g\.g_y\[4\]\.g_x\[7\]\.t\.w_ov
*803 g\.g_y\[4\]\.g_x\[7\]\.t\.w_v
*804 g\.g_y\[4\]\.g_x\[7\]\.t\.w_vb
*805 g\.g_y\[4\]\.g_x\[7\]\.t\.w_vt
*806 g\.g_y\[5\]\.g_x\[0\]\.t\.in_b
*807 g\.g_y\[5\]\.g_x\[0\]\.t\.in_r
*808 g\.g_y\[5\]\.g_x\[0\]\.t\.out_b
*809 g\.g_y\[5\]\.g_x\[0\]\.t\.out_l
*810 g\.g_y\[5\]\.g_x\[0\]\.t\.out_r
*811 g\.g_y\[5\]\.g_x\[0\]\.t\.out_sc
*812 g\.g_y\[5\]\.g_x\[0\]\.t\.w_d
*813 g\.g_y\[5\]\.g_x\[0\]\.t\.w_dh
*814 g\.g_y\[5\]\.g_x\[0\]\.t\.w_dv
*815 g\.g_y\[5\]\.g_x\[0\]\.t\.w_gn
*816 g\.g_y\[5\]\.g_x\[0\]\.t\.w_h
*817 g\.g_y\[5\]\.g_x\[0\]\.t\.w_hl
*818 g\.g_y\[5\]\.g_x\[0\]\.t\.w_hr
*819 g\.g_y\[5\]\.g_x\[0\]\.t\.w_oh
*820 g\.g_y\[5\]\.g_x\[0\]\.t\.w_ov
*821 g\.g_y\[5\]\.g_x\[0\]\.t\.w_v
*822 g\.g_y\[5\]\.g_x\[0\]\.t\.w_vb
*823 g\.g_y\[5\]\.g_x\[0\]\.t\.w_vt
*824 g\.g_y\[5\]\.g_x\[1\]\.t\.in_b
*825 g\.g_y\[5\]\.g_x\[1\]\.t\.in_r
*826 g\.g_y\[5\]\.g_x\[1\]\.t\.out_b
*827 g\.g_y\[5\]\.g_x\[1\]\.t\.out_r
*828 g\.g_y\[5\]\.g_x\[1\]\.t\.out_sc
*829 g\.g_y\[5\]\.g_x\[1\]\.t\.w_d
*830 g\.g_y\[5\]\.g_x\[1\]\.t\.w_dh
*831 g\.g_y\[5\]\.g_x\[1\]\.t\.w_dv
*832 g\.g_y\[5\]\.g_x\[1\]\.t\.w_gh
*833 g\.g_y\[5\]\.g_x\[1\]\.t\.w_gn
*834 g\.g_y\[5\]\.g_x\[1\]\.t\.w_h
*835 g\.g_y\[5\]\.g_x\[1\]\.t\.w_hl
*836 g\.g_y\[5\]\.g_x\[1\]\.t\.w_hr
*837 g\.g_y\[5\]\.g_x\[1\]\.t\.w_na
*838 g\.g_y\[5\]\.g_x\[1\]\.t\.w_oh
*839 g\.g_y\[5\]\.g_x\[1\]\.t\.w_ov
*840 g\.g_y\[5\]\.g_x\[1\]\.t\.w_v
*841 g\.g_y\[5\]\.g_x\[1\]\.t\.w_vb
*842 g\.g_y\[5\]\.g_x\[1\]\.t\.w_vt
*843 g\.g_y\[5\]\.g_x\[2\]\.t\.in_b
*844 g\.g_y\[5\]\.g_x\[2\]\.t\.in_r
*845 g\.g_y\[5\]\.g_x\[2\]\.t\.out_b
*846 g\.g_y\[5\]\.g_x\[2\]\.t\.out_r
*847 g\.g_y\[5\]\.g_x\[2\]\.t\.out_sc
*848 g\.g_y\[5\]\.g_x\[2\]\.t\.w_d
*849 g\.g_y\[5\]\.g_x\[2\]\.t\.w_dh
*850 g\.g_y\[5\]\.g_x\[2\]\.t\.w_dv
*851 g\.g_y\[5\]\.g_x\[2\]\.t\.w_gn
*852 g\.g_y\[5\]\.g_x\[2\]\.t\.w_h
*853 g\.g_y\[5\]\.g_x\[2\]\.t\.w_hl
*854 g\.g_y\[5\]\.g_x\[2\]\.t\.w_hr
*855 g\.g_y\[5\]\.g_x\[2\]\.t\.w_oh
*856 g\.g_y\[5\]\.g_x\[2\]\.t\.w_ov
*857 g\.g_y\[5\]\.g_x\[2\]\.t\.w_v
*858 g\.g_y\[5\]\.g_x\[2\]\.t\.w_vb
*859 g\.g_y\[5\]\.g_x\[2\]\.t\.w_vt
*860 g\.g_y\[5\]\.g_x\[3\]\.t\.in_b
*861 g\.g_y\[5\]\.g_x\[3\]\.t\.in_r
*862 g\.g_y\[5\]\.g_x\[3\]\.t\.out_b
*863 g\.g_y\[5\]\.g_x\[3\]\.t\.out_r
*864 g\.g_y\[5\]\.g_x\[3\]\.t\.out_sc