*SPEF "ieee 1481-1999"
*DESIGN "tt_um_marno_factorize"
*DATE "11:11:11 Fri 11 11, 1111"
*VENDOR "OpenRCX"
*PROGRAM "Parallel Extraction"
*VERSION "1.0"
*DESIGN_FLOW "NAME_SCOPE LOCAL" "PIN_CAP NONE"
*DIVIDER /
*DELIMITER :
*BUS_DELIMITER []
*T_UNIT 1 NS
*C_UNIT 1 PF
*R_UNIT 1 OHM
*L_UNIT 1 HENRY

*NAME_MAP
*3 clk
*4 ena
*5 rst_n
*6 ui_in[0]
*7 ui_in[1]
*8 ui_in[2]
*9 ui_in[3]
*10 ui_in[4]
*11 ui_in[5]
*12 ui_in[6]
*13 ui_in[7]
*14 uio_in[0]
*15 uio_in[1]
*16 uio_in[2]
*17 uio_in[3]
*18 uio_in[4]
*19 uio_in[5]
*20 uio_in[6]
*21 uio_in[7]
*22 net10
*23 net11
*24 net12
*25 net13
*26 net14
*27 net15
*28 net16
*29 net17
*30 uio_out[0]
*31 uio_out[1]
*32 uio_out[2]
*33 uio_out[3]
*34 uio_out[4]
*35 uio_out[5]
*36 uio_out[6]
*37 uio_out[7]
*38 uo_out[0]
*39 uo_out[1]
*40 uo_out[2]
*41 uo_out[3]
*42 uo_out[4]
*43 uo_out[5]
*44 uo_out[6]
*45 uo_out[7]
*46 _0000_
*47 _0001_
*48 _0002_
*49 _0003_
*50 _0004_
*51 _0005_
*52 _0006_
*53 _0007_
*54 _0008_
*55 _0009_
*56 _0010_
*57 _0011_
*58 _0012_
*59 _0013_
*60 _0014_
*61 _0015_
*62 _0016_
*63 _0017_
*64 _0018_
*65 _0019_
*66 _0020_
*67 _0021_
*68 _0022_
*69 _0023_
*70 _0024_
*71 _0025_
*72 _0026_
*73 _0027_
*74 _0028_
*75 _0029_
*76 _0030_
*77 _0031_
*78 _0032_
*79 _0033_
*80 _0034_
*81 _0035_
*82 _0036_
*83 _0037_
*84 _0038_
*85 _0039_
*86 _0040_
*87 _0041_
*88 _0042_
*89 _0043_
*90 _0044_
*91 _0045_
*92 _0046_
*93 _0047_
*94 _0048_
*95 _0049_
*96 _0050_
*97 _0051_
*98 _0052_
*99 _0053_
*100 _0054_
*101 _0055_
*102 _0056_
*103 _0057_
*104 _0058_
*105 _0059_
*106 _0060_
*107 _0061_
*108 _0062_
*109 _0063_
*110 _0064_
*111 _0065_
*112 _0066_
*113 _0067_
*114 _0068_
*115 _0069_
*116 _0070_
*117 _0071_
*118 _0072_
*119 _0073_
*120 _0074_
*121 _0075_
*122 _0076_
*123 _0077_
*124 _0078_
*125 _0079_
*126 _0080_
*127 _0081_
*128 _0082_
*129 _0083_
*130 _0084_
*131 _0085_
*132 _0086_
*133 _0087_
*134 _0088_
*135 _0089_
*136 _0090_
*137 _0091_
*138 _0092_
*139 _0093_
*140 _0094_
*141 _0095_
*142 _0096_
*143 _0097_
*144 _0098_
*145 _0099_
*146 _0100_
*147 _0101_
*148 _0102_
*149 _0103_
*150 _0104_
*151 _0105_
*152 _0106_
*153 _0107_
*154 _0108_
*155 _0109_
*156 _0110_
*157 _0111_
*158 _0112_
*159 _0113_
*160 _0114_
*161 _0115_
*162 _0116_
*163 _0117_
*164 _0118_
*165 _0119_
*166 _0120_
*167 _0121_
*168 _0122_
*169 _0123_
*170 _0124_
*171 _0125_
*172 _0126_
*173 _0127_
*174 _0128_
*175 _0129_
*176 _0130_
*177 _0131_
*178 _0132_
*179 _0133_
*180 _0134_
*181 _0135_
*182 _0136_
*183 _0137_
*184 _0138_
*185 _0139_
*186 _0140_
*187 _0141_
*188 _0142_
*189 _0143_
*190 _0144_
*191 _0145_
*192 _0146_
*193 _0147_
*194 _0148_
*195 _0149_
*196 _0150_
*197 _0151_
*198 _0152_
*199 _0153_
*200 _0154_
*201 _0155_
*202 _0156_
*203 _0157_
*204 _0158_
*205 _0159_
*206 _0160_
*207 _0161_
*208 _0162_
*209 _0163_
*210 _0164_
*211 _0165_
*212 _0166_
*213 _0167_
*214 _0168_
*215 _0169_
*216 _0170_
*217 _0171_
*218 _0172_
*219 _0173_
*220 _0174_
*221 _0175_
*222 _0176_
*223 _0177_
*224 _0178_
*225 _0179_
*226 _0180_
*227 _0181_
*228 _0182_
*229 _0183_
*230 _0184_
*231 _0185_
*232 _0186_
*233 _0187_
*234 _0188_
*235 _0189_
*236 _0190_
*237 _0191_
*238 _0192_
*239 _0193_
*240 _0194_
*241 _0195_
*242 _0196_
*243 _0197_
*244 _0198_
*245 _0199_
*246 _0200_
*247 _0201_
*248 _0202_
*249 _0203_
*250 _0204_
*251 _0205_
*252 _0206_
*253 _0207_
*254 _0208_
*255 _0209_
*256 _0210_
*257 _0211_
*258 _0212_
*259 _0213_
*260 _0214_
*261 _0215_
*262 _0216_
*263 _0217_
*264 _0218_
*265 _0219_
*266 _0220_
*267 _0221_
*268 _0222_
*269 _0223_
*270 _0224_
*271 _0225_
*272 _0226_
*273 _0227_
*274 _0228_
*275 _0229_
*276 _0230_
*277 _0231_
*278 _0232_
*279 _0233_
*280 _0234_
*281 _0235_
*282 _0236_
*283 _0237_
*284 _0238_
*285 _0239_
*286 _0240_
*287 _0241_
*288 _0242_
*289 _0243_
*290 _0244_
*291 _0245_
*292 _0246_
*293 _0247_
*294 _0248_
*295 _0249_
*296 _0250_
*297 _0251_
*298 _0252_
*299 _0253_
*300 _0254_
*301 _0255_
*302 _0256_
*303 _0257_
*304 _0258_
*305 _0259_
*306 _0260_
*307 _0261_
*308 _0262_
*309 _0263_
*310 _0264_
*311 _0265_
*312 _0266_
*313 _0267_
*314 _0268_
*315 _0269_
*316 _0270_
*317 _0271_
*318 _0272_
*319 _0273_
*320 _0274_
*321 _0275_
*322 _0276_
*323 _0277_
*324 _0278_
*325 _0279_
*326 _0280_
*327 _0281_
*328 _0282_
*329 _0283_
*330 _0284_
*331 _0285_
*332 _0286_
*333 _0287_
*334 _0288_
*335 _0289_
*336 _0290_
*337 _0291_
*338 _0292_
*339 _0293_
*340 _0294_
*341 _0295_
*342 _0296_
*343 _0297_
*344 _0298_
*345 _0299_
*346 _0300_
*347 _0301_
*348 _0302_
*349 _0303_
*350 _0304_
*351 _0305_
*352 _0306_
*353 _0307_
*354 _0308_
*355 _0309_
*356 _0310_
*357 _0311_
*358 _0312_
*359 _0313_
*360 _0314_
*361 _0315_
*362 _0316_
*363 _0317_
*364 _0318_
*365 _0319_
*366 _0320_
*367 _0321_
*368 _0322_
*369 _0323_
*370 _0324_
*371 _0325_
*372 _0326_
*373 _0327_
*374 _0328_
*375 _0329_
*376 _0330_
*377 _0331_
*378 _0332_
*379 _0333_
*380 _0334_
*381 _0335_
*382 _0336_
*383 _0337_
*384 _0338_
*385 _0339_
*386 _0340_
*387 _0341_
*388 _0342_
*389 _0343_
*390 _0344_
*391 _0345_
*392 _0346_
*393 _0347_
*394 _0348_
*395 _0349_
*396 _0350_
*397 _0351_
*398 _0352_
*399 _0353_
*400 _0354_
*401 _0355_
*402 _0356_
*403 _0357_
*404 _0358_
*405 _0359_
*406 _0360_
*407 _0361_
*408 _0362_
*409 _0363_
*410 _0364_
*411 _0365_
*412 _0366_
*413 _0367_
*414 _0368_
*415 _0369_
*416 _0370_
*417 _0371_
*418 _0372_
*419 _0373_
*420 _0374_
*421 _0375_
*422 _0376_
*423 _0377_
*424 _0378_
*425 _0379_
*426 _0380_
*427 _0381_
*428 _0382_
*429 _0383_
*430 _0384_
*431 _0385_
*432 _0386_
*433 _0387_
*434 _0388_
*435 _0389_
*436 _0390_
*437 _0391_
*438 _0392_
*439 _0393_
*440 _0394_
*441 _0395_
*442 _0396_
*443 _0397_
*444 _0398_
*445 _0399_
*446 _0400_
*447 _0401_
*448 _0402_
*449 _0403_
*450 _0404_
*451 _0405_
*452 _0406_
*453 _0407_
*454 _0408_
*455 _0409_
*456 _0410_
*457 _0411_
*458 _0412_
*459 _0413_
*460 _0414_
*461 _0415_
*462 _0416_
*463 _0417_
*464 _0418_
*465 _0419_
*466 _0420_
*467 _0421_
*468 _0422_
*469 _0423_
*470 _0424_
*471 _0425_
*472 _0426_
*473 _0427_
*474 _0428_
*475 _0429_
*476 _0430_
*477 _0431_
*478 _0432_
*479 _0433_
*480 _0434_
*481 _0435_
*482 _0436_
*483 _0437_
*484 _0438_
*485 _0439_
*486 _0440_
*487 _0441_
*488 _0442_
*489 _0443_
*490 _0444_
*491 _0445_
*492 _0446_
*493 _0447_
*494 _0448_
*495 _0449_
*496 _0450_
*497 _0451_
*498 _0452_
*499 _0453_
*500 _0454_
*501 _0455_
*502 _0456_
*503 _0457_
*504 _0458_
*505 _0459_
*506 _0460_
*507 _0461_
*508 _0462_
*509 _0463_
*510 _0464_
*511 _0465_
*512 _0466_
*513 _0467_
*514 _0468_
*515 _0469_
*516 _0470_
*517 _0471_
*518 _0472_
*519 _0473_
*520 _0474_
*521 _0475_
*522 _0476_
*523 _0477_
*524 _0478_
*525 _0479_
*526 _0480_
*527 _0481_
*528 _0482_
*529 _0483_
*530 _0484_
*531 _0485_
*532 _0486_
*533 _0487_
*534 _0488_
*535 _0489_
*536 _0490_
*537 _0491_
*538 _0492_
*539 _0493_
*540 _0494_
*541 _0495_
*542 _0496_
*543 _0497_
*544 _0498_
*545 _0499_
*546 _0500_
*547 _0501_
*548 _0502_
*549 _0503_
*550 _0504_
*551 _0505_
*552 _0506_
*553 _0507_
*554 _0508_
*555 _0509_
*556 _0510_
*557 _0511_
*558 _0512_
*559 _0513_
*560 _0514_
*561 _0515_
*562 _0516_
*563 _0517_
*564 _0518_
*565 _0519_
*566 _0520_
*567 _0521_
*568 _0522_
*569 _0523_
*570 _0524_
*571 _0525_
*572 _0526_
*573 _0527_
*574 _0528_
*575 _0529_
*576 _0530_
*577 _0531_
*578 _0532_
*579 _0533_
*580 _0534_
*581 _0535_
*582 _0536_
*583 _0537_
*584 _0538_
*585 _0539_
*586 _0540_
*587 _0541_
*588 _0542_
*589 _0543_
*590 _0544_
*591 _0545_
*592 _0546_
*593 _0547_
*594 _0548_
*595 _0549_
*596 _0550_
*597 _0551_
*598 _0552_
*599 _0553_
*600 _0554_
*601 _0555_
*602 _0556_
*603 _0557_
*604 _0558_
*605 _0559_
*606 _0560_
*607 _0561_
*608 _0562_
*609 _0563_
*610 _0564_
*611 clknet_0_clk
*612 clknet_3_0__leaf_clk
*613 clknet_3_1__leaf_clk
*614 clknet_3_2__leaf_clk
*615 clknet_3_3__leaf_clk
*616 clknet_3_4__leaf_clk
*617 clknet_3_5__leaf_clk
*618 clknet_3_6__leaf_clk
*619 clknet_3_7__leaf_clk
*620 factorizer\.factors\[0\]
*621 factorizer\.factors\[10\]
*622 factorizer\.factors\[11\]
*623 factorizer\.factors\[12\]
*624 factorizer\.factors\[13\]
*625 factorizer\.factors\[15\]
*626 factorizer\.factors\[17\]
*627 factorizer\.factors\[1\]
*628 factorizer\.factors\[2\]
*629 factorizer\.factors\[3\]
*630 factorizer\.factors\[4\]
*631 factorizer\.factors\[5\]
*632 factorizer\.factors\[6\]
*633 factorizer\.factors\[7\]
*634 factorizer\.factors\[8\]
*635 factorizer\.factors\[9\]
*636 factorizer\.mod_eleven\[0\]
*637 factorizer\.mod_eleven\[1\]
*638 factorizer\.mod_eleven\[2\]
*639 factorizer\.mod_eleven\[3\]
*640 factorizer\.mod_eleven\[4\]
*641 factorizer\.mod_eleven\[5\]
*642 factorizer\.mod_five\[0\]
*643 factorizer\.mod_five\[1\]
*644 factorizer\.mod_five\[2\]
*645 factorizer\.mod_five\[3\]
*646 factorizer\.mod_five\[4\]
*647 factorizer\.mod_nine\[0\]
*648 factorizer\.mod_nine\[1\]
*649 factorizer\.mod_nine\[2\]
*650 factorizer\.mod_nine\[3\]
*651 factorizer\.mod_nine\[4\]
*652 factorizer\.mod_nineteen\[0\]
*653 factorizer\.mod_nineteen\[1\]
*654 factorizer\.mod_nineteen\[2\]
*655 factorizer\.mod_nineteen\[3\]
*656 factorizer\.mod_nineteen\[4\]
*657 factorizer\.mod_nineteen\[5\]
*658 factorizer\.mod_nineteen\[6\]
*659 factorizer\.mod_seven\[0\]
*660 factorizer\.mod_seven\[1\]
*661 factorizer\.mod_seven\[2\]
*662 factorizer\.mod_seven\[3\]
*663 factorizer\.mod_seven\[4\]
*664 factorizer\.mod_seventeen\[0\]
*665 factorizer\.mod_seventeen\[1\]
*666 factorizer\.mod_seventeen\[2\]
*667 factorizer\.mod_seventeen\[3\]
*668 factorizer\.mod_seventeen\[4\]
*669 factorizer\.mod_seventeen\[5\]
*670 factorizer\.mod_seventeen\[6\]
*671 factorizer\.mod_thirteen\[0\]
*672 factorizer\.mod_thirteen\[1\]
*673 factorizer\.mod_thirteen\[2\]
*674 factorizer\.mod_thirteen\[3\]
*675 factorizer\.mod_thirteen\[4\]
*676 factorizer\.mod_thirteen\[5\]
*677 factorizer\.mod_three\[0\]
*678 factorizer\.mod_three\[1\]
*679 factorizer\.mod_three\[2\]
*680 factorizer\.mod_three\[3\]
*681 net1
*682 net18
*683 net19
*684 net2
*685 net20
*686 net21
*687 net22
*688 net23
*689 net24
*690 net25
*691 net26
*692 net27
*693 net28
*694 net29
*695 net3
*696 net30
*697 net31
*698 net32
*699 net33
*700 net34
*701 net35
*702 net36
*703 net37
*704 net38
*705 net39
*706 net4
*707 net40
*708 net41
*709 net42
*710 net43
*711 net44
*712 net45
*713 net46
*714 net47
*715 net48
*716 net49
*717 net5
*718 net50
*719 net51
*720 net52
*721 net53
*722 net6
*723 net7
*724 net8
*725 net9
*726 new_digit\[0\]
*727 new_digit\[1\]
*728 new_digit\[2\]
*729 new_digit\[3\]
*730 old_input\[0\]
*731 old_input\[1\]
*732 old_input\[2\]
*733 old_input\[3\]
*734 old_input\[4\]
*735 old_input\[5\]
*736 old_input\[6\]
*737 old_input\[7\]
*738 second_counter\[0\]
*739 second_counter\[10\]
*740 second_counter\[11\]
*741 second_counter\[12\]
*742 second_counter\[13\]
*743 second_counter\[14\]
*744 second_counter\[15\]
*745 second_counter\[16\]
*746 second_counter\[17\]
*747 second_counter\[18\]
*748 second_counter\[19\]
*749 second_counter\[1\]
*750 second_counter\[20\]
*751 second_counter\[21\]
*752 second_counter\[22\]
*753 second_counter\[23\]
*754 second_counter\[2\]
*755 second_counter\[3\]
*756 second_counter\[4\]
*757 second_counter\[5\]
*758 second_counter\[6\]
*759 second_counter\[7\]
*760 second_counter\[8\]
*761 second_counter\[9\]
*762 seg7decoder\.counter\[0\]
*763 seg7decoder\.counter\[1\]
*764 seg7decoder\.counter\[2\]
*765 seg7decoder\.counter\[3\]
*766 FILLER_0_0_109
*767 FILLER_0_0_113
*768 FILLER_0_0_125
*769 FILLER_0_0_137
*770 FILLER_0_0_141
*771 FILLER_0_0_15
*772 FILLER_0_0_153
*773 FILLER_0_0_165
*774 FILLER_0_0_169
*775 FILLER_0_0_181
*776 FILLER_0_0_193
*777 FILLER_0_0_197
*778 FILLER_0_0_209
*779 FILLER_0_0_221
*780 FILLER_0_0_225
*781 FILLER_0_0_237
*782 FILLER_0_0_249
*783 FILLER_0_0_253
*784 FILLER_0_0_265
*785 FILLER_0_0_27
*786 FILLER_0_0_277
*787 FILLER_0_0_281
*788 FILLER_0_0_29
*789 FILLER_0_0_293
*790 FILLER_0_0_3
*791 FILLER_0_0_305
*792 FILLER_0_0_309
*793 FILLER_0_0_321
*794 FILLER_0_0_333
*795 FILLER_0_0_337
*796 FILLER_0_0_349
*797 FILLER_0_0_41
*798 FILLER_0_0_53
*799 FILLER_0_0_57
*800 FILLER_0_0_69
*801 FILLER_0_0_81
*802 FILLER_0_0_85
*803 FILLER_0_0_97
*804 FILLER_0_10_109
*805 FILLER_0_10_121
*806 FILLER_0_10_133
*807 FILLER_0_10_139
*808 FILLER_0_10_141
*809 FILLER_0_10_15
*810 FILLER_0_10_153
*811 FILLER_0_10_166
*812 FILLER_0_10_178
*813 FILLER_0_10_190
*814 FILLER_0_10_197
*815 FILLER_0_10_221
*816 FILLER_0_10_225
*817 FILLER_0_10_242
*818 FILLER_0_10_251
*819 FILLER_0_10_267
*820 FILLER_0_10_27
*821 FILLER_0_10_29
*822 FILLER_0_10_291
*823 FILLER_0_10_3
*824 FILLER_0_10_303
*825 FILLER_0_10_307
*826 FILLER_0_10_309
*827 FILLER_0_10_321
*828 FILLER_0_10_326
*829 FILLER_0_10_338
*830 FILLER_0_10_350
*831 FILLER_0_10_41
*832 FILLER_0_10_53
*833 FILLER_0_10_65
*834 FILLER_0_10_77
*835 FILLER_0_10_83
*836 FILLER_0_10_85
*837 FILLER_0_10_97
*838 FILLER_0_11_105
*839 FILLER_0_11_111
*840 FILLER_0_11_113
*841 FILLER_0_11_125
*842 FILLER_0_11_137
*843 FILLER_0_11_145
*844 FILLER_0_11_15
*845 FILLER_0_11_162
*846 FILLER_0_11_169
*847 FILLER_0_11_191
*848 FILLER_0_11_203
*849 FILLER_0_11_218
*850 FILLER_0_11_244
*851 FILLER_0_11_252
*852 FILLER_0_11_27
*853 FILLER_0_11_274
*854 FILLER_0_11_281
*855 FILLER_0_11_3
*856 FILLER_0_11_303
*857 FILLER_0_11_315
*858 FILLER_0_11_319
*859 FILLER_0_11_337
*860 FILLER_0_11_349
*861 FILLER_0_11_39
*862 FILLER_0_11_51
*863 FILLER_0_11_55
*864 FILLER_0_11_57
*865 FILLER_0_11_69
*866 FILLER_0_11_81
*867 FILLER_0_11_93
*868 FILLER_0_12_109
*869 FILLER_0_12_121
*870 FILLER_0_12_133
*871 FILLER_0_12_139
*872 FILLER_0_12_15
*873 FILLER_0_12_157
*874 FILLER_0_12_169
*875 FILLER_0_12_181
*876 FILLER_0_12_193
*877 FILLER_0_12_216
*878 FILLER_0_12_228
*879 FILLER_0_12_253
*880 FILLER_0_12_257
*881 FILLER_0_12_27
*882 FILLER_0_12_274
*883 FILLER_0_12_29
*884 FILLER_0_12_291
*885 FILLER_0_12_3
*886 FILLER_0_12_309
*887 FILLER_0_12_330
*888 FILLER_0_12_338
*889 FILLER_0_12_348
*890 FILLER_0_12_41
*891 FILLER_0_12_53
*892 FILLER_0_12_65
*893 FILLER_0_12_77
*894 FILLER_0_12_83
*895 FILLER_0_12_85
*896 FILLER_0_12_97
*897 FILLER_0_13_105
*898 FILLER_0_13_111
*899 FILLER_0_13_113
*900 FILLER_0_13_121
*901 FILLER_0_13_127
*902 FILLER_0_13_135
*903 FILLER_0_13_141
*904 FILLER_0_13_149
*905 FILLER_0_13_15
*906 FILLER_0_13_165
*907 FILLER_0_13_185
*908 FILLER_0_13_191
*909 FILLER_0_13_195
*910 FILLER_0_13_200
*911 FILLER_0_13_212
*912 FILLER_0_13_223
*913 FILLER_0_13_230
*914 FILLER_0_13_236
*915 FILLER_0_13_242
*916 FILLER_0_13_268
*917 FILLER_0_13_27
*918 FILLER_0_13_3
*919 FILLER_0_13_317
*920 FILLER_0_13_343
*921 FILLER_0_13_39
*922 FILLER_0_13_51
*923 FILLER_0_13_55
*924 FILLER_0_13_57
*925 FILLER_0_13_69
*926 FILLER_0_13_81
*927 FILLER_0_13_93
*928 FILLER_0_14_109
*929 FILLER_0_14_137
*930 FILLER_0_14_157
*931 FILLER_0_14_165
*932 FILLER_0_14_177
*933 FILLER_0_14_181
*934 FILLER_0_14_188
*935 FILLER_0_14_197
*936 FILLER_0_14_205
*937 FILLER_0_14_21
*938 FILLER_0_14_218
*939 FILLER_0_14_224
*940 FILLER_0_14_27
*941 FILLER_0_14_277
*942 FILLER_0_14_285
*943 FILLER_0_14_293
*944 FILLER_0_14_3
*945 FILLER_0_14_302
*946 FILLER_0_14_309
*947 FILLER_0_14_317
*948 FILLER_0_14_325
*949 FILLER_0_14_350
*950 FILLER_0_14_37
*951 FILLER_0_14_49
*952 FILLER_0_14_72
*953 FILLER_0_14_85
*954 FILLER_0_14_97
*955 FILLER_0_15_103
*956 FILLER_0_15_111
*957 FILLER_0_15_116
*958 FILLER_0_15_128
*959 FILLER_0_15_140
*960 FILLER_0_15_148
*961 FILLER_0_15_153
*962 FILLER_0_15_159
*963 FILLER_0_15_169
*964 FILLER_0_15_177
*965 FILLER_0_15_198
*966 FILLER_0_15_206
*967 FILLER_0_15_214
*968 FILLER_0_15_222
*969 FILLER_0_15_225
*970 FILLER_0_15_229
*971 FILLER_0_15_234
*972 FILLER_0_15_246
*973 FILLER_0_15_258
*974 FILLER_0_15_26
*975 FILLER_0_15_262
*976 FILLER_0_15_278
*977 FILLER_0_15_281
*978 FILLER_0_15_3
*979 FILLER_0_15_309
*980 FILLER_0_15_32
*981 FILLER_0_15_331
*982 FILLER_0_15_335
*983 FILLER_0_15_340
*984 FILLER_0_15_348
*985 FILLER_0_15_49
*986 FILLER_0_15_57
*987 FILLER_0_15_79
*988 FILLER_0_15_9
*989 FILLER_0_15_91
*990 FILLER_0_16_105
*991 FILLER_0_16_123
*992 FILLER_0_16_129
*993 FILLER_0_16_136
*994 FILLER_0_16_141
*995 FILLER_0_16_15
*996 FILLER_0_16_150
*997 FILLER_0_16_162
*998 FILLER_0_16_174
*999 FILLER_0_16_182
*1000 FILLER_0_16_191
*1001 FILLER_0_16_195
*1002 FILLER_0_16_202
*1003 FILLER_0_16_21
*1004 FILLER_0_16_211
*1005 FILLER_0_16_219
*1006 FILLER_0_16_230
*1007 FILLER_0_16_253
*1008 FILLER_0_16_261
*1009 FILLER_0_16_27
*1010 FILLER_0_16_283
*1011 FILLER_0_16_295
*1012 FILLER_0_16_3
*1013 FILLER_0_16_305
*1014 FILLER_0_16_309
*1015 FILLER_0_16_315
*1016 FILLER_0_16_319
*1017 FILLER_0_16_331
*1018 FILLER_0_16_350
*1019 FILLER_0_16_85
*1020 FILLER_0_17_113
*1021 FILLER_0_17_125
*1022 FILLER_0_17_144
*1023 FILLER_0_17_156
*1024 FILLER_0_17_169
*1025 FILLER_0_17_181
*1026 FILLER_0_17_203
*1027 FILLER_0_17_211
*1028 FILLER_0_17_217
*1029 FILLER_0_17_223
*1030 FILLER_0_17_225
*1031 FILLER_0_17_229
*1032 FILLER_0_17_233
*1033 FILLER_0_17_245
*1034 FILLER_0_17_265
*1035 FILLER_0_17_274
*1036 FILLER_0_17_297
*1037 FILLER_0_17_301
*1038 FILLER_0_17_31
*1039 FILLER_0_17_311
*1040 FILLER_0_17_317
*1041 FILLER_0_17_325
*1042 FILLER_0_17_333
*1043 FILLER_0_17_337
*1044 FILLER_0_17_349
*1045 FILLER_0_17_39
*1046 FILLER_0_17_49
*1047 FILLER_0_17_84
*1048 FILLER_0_18_108
*1049 FILLER_0_18_130
*1050 FILLER_0_18_134
*1051 FILLER_0_18_141
*1052 FILLER_0_18_151
*1053 FILLER_0_18_159
*1054 FILLER_0_18_170
*1055 FILLER_0_18_182
*1056 FILLER_0_18_194
*1057 FILLER_0_18_197
*1058 FILLER_0_18_219
*1059 FILLER_0_18_225
*1060 FILLER_0_18_233
*1061 FILLER_0_18_250
*1062 FILLER_0_18_27
*1063 FILLER_0_18_285
*1064 FILLER_0_18_297
*1065 FILLER_0_18_3
*1066 FILLER_0_18_305
*1067 FILLER_0_18_316
*1068 FILLER_0_18_320
*1069 FILLER_0_18_339
*1070 FILLER_0_18_40
*1071 FILLER_0_18_74
*1072 FILLER_0_18_82
*1073 FILLER_0_18_9
*1074 FILLER_0_19_110
*1075 FILLER_0_19_113
*1076 FILLER_0_19_123
*1077 FILLER_0_19_135
*1078 FILLER_0_19_141
*1079 FILLER_0_19_153
*1080 FILLER_0_19_167
*1081 FILLER_0_19_174
*1082 FILLER_0_19_19
*1083 FILLER_0_19_198
*1084 FILLER_0_19_210
*1085 FILLER_0_19_222
*1086 FILLER_0_19_225
*1087 FILLER_0_19_231
*1088 FILLER_0_19_243
*1089 FILLER_0_19_255
*1090 FILLER_0_19_267
*1091 FILLER_0_19_279
*1092 FILLER_0_19_296
*1093 FILLER_0_19_308
*1094 FILLER_0_19_317
*1095 FILLER_0_19_325
*1096 FILLER_0_19_334
*1097 FILLER_0_19_35
*1098 FILLER_0_19_43
*1099 FILLER_0_19_49
*1100 FILLER_0_19_55
*1101 FILLER_0_19_65
*1102 FILLER_0_19_74
*1103 FILLER_0_19_81
*1104 FILLER_0_19_85
*1105 FILLER_0_1_105
*1106 FILLER_0_1_111
*1107 FILLER_0_1_113
*1108 FILLER_0_1_125
*1109 FILLER_0_1_137
*1110 FILLER_0_1_149
*1111 FILLER_0_1_15
*1112 FILLER_0_1_161
*1113 FILLER_0_1_167
*1114 FILLER_0_1_169
*1115 FILLER_0_1_181
*1116 FILLER_0_1_193
*1117 FILLER_0_1_205
*1118 FILLER_0_1_217
*1119 FILLER_0_1_223
*1120 FILLER_0_1_225
*1121 FILLER_0_1_237
*1122 FILLER_0_1_249
*1123 FILLER_0_1_261
*1124 FILLER_0_1_27
*1125 FILLER_0_1_273
*1126 FILLER_0_1_279
*1127 FILLER_0_1_281
*1128 FILLER_0_1_293
*1129 FILLER_0_1_3
*1130 FILLER_0_1_305
*1131 FILLER_0_1_317
*1132 FILLER_0_1_329
*1133 FILLER_0_1_335
*1134 FILLER_0_1_337
*1135 FILLER_0_1_349
*1136 FILLER_0_1_39
*1137 FILLER_0_1_51
*1138 FILLER_0_1_55
*1139 FILLER_0_1_57
*1140 FILLER_0_1_69
*1141 FILLER_0_1_81
*1142 FILLER_0_1_93
*1143 FILLER_0_20_101
*1144 FILLER_0_20_116
*1145 FILLER_0_20_131
*1146 FILLER_0_20_141
*1147 FILLER_0_20_15
*1148 FILLER_0_20_154
*1149 FILLER_0_20_166
*1150 FILLER_0_20_170
*1151 FILLER_0_20_182
*1152 FILLER_0_20_19
*1153 FILLER_0_20_194
*1154 FILLER_0_20_197
*1155 FILLER_0_20_203
*1156 FILLER_0_20_211
*1157 FILLER_0_20_215
*1158 FILLER_0_20_231
*1159 FILLER_0_20_239
*1160 FILLER_0_20_245
*1161 FILLER_0_20_251
*1162 FILLER_0_20_253
*1163 FILLER_0_20_267
*1164 FILLER_0_20_279
*1165 FILLER_0_20_287
*1166 FILLER_0_20_29
*1167 FILLER_0_20_292
*1168 FILLER_0_20_3
*1169 FILLER_0_20_304
*1170 FILLER_0_20_309
*1171 FILLER_0_20_326
*1172 FILLER_0_20_334
*1173 FILLER_0_20_345
*1174 FILLER_0_20_39
*1175 FILLER_0_20_47
*1176 FILLER_0_20_57
*1177 FILLER_0_20_83
*1178 FILLER_0_21_129
*1179 FILLER_0_21_135
*1180 FILLER_0_21_143
*1181 FILLER_0_21_151
*1182 FILLER_0_21_166
*1183 FILLER_0_21_169
*1184 FILLER_0_21_175
*1185 FILLER_0_21_188
*1186 FILLER_0_21_202
*1187 FILLER_0_21_21
*1188 FILLER_0_21_214
*1189 FILLER_0_21_222
*1190 FILLER_0_21_225
*1191 FILLER_0_21_233
*1192 FILLER_0_21_248
*1193 FILLER_0_21_254
*1194 FILLER_0_21_268
*1195 FILLER_0_21_279
*1196 FILLER_0_21_286
*1197 FILLER_0_21_3
*1198 FILLER_0_21_301
*1199 FILLER_0_21_313
*1200 FILLER_0_21_322
*1201 FILLER_0_21_334
*1202 FILLER_0_21_347
*1203 FILLER_0_21_45
*1204 FILLER_0_21_55
*1205 FILLER_0_21_61
*1206 FILLER_0_21_73
*1207 FILLER_0_21_89
*1208 FILLER_0_21_95
*1209 FILLER_0_22_101
*1210 FILLER_0_22_11
*1211 FILLER_0_22_110
*1212 FILLER_0_22_121
*1213 FILLER_0_22_129
*1214 FILLER_0_22_133
*1215 FILLER_0_22_141
*1216 FILLER_0_22_145
*1217 FILLER_0_22_157
*1218 FILLER_0_22_169
*1219 FILLER_0_22_181
*1220 FILLER_0_22_197
*1221 FILLER_0_22_207
*1222 FILLER_0_22_215
*1223 FILLER_0_22_231
*1224 FILLER_0_22_245
*1225 FILLER_0_22_251
*1226 FILLER_0_22_253
*1227 FILLER_0_22_265
*1228 FILLER_0_22_277
*1229 FILLER_0_22_291
*1230 FILLER_0_22_299
*1231 FILLER_0_22_3
*1232 FILLER_0_22_307
*1233 FILLER_0_22_309
*1234 FILLER_0_22_315
*1235 FILLER_0_22_324
*1236 FILLER_0_22_328
*1237 FILLER_0_22_336
*1238 FILLER_0_22_348
*1239 FILLER_0_22_44
*1240 FILLER_0_22_67
*1241 FILLER_0_22_71
*1242 FILLER_0_22_75
*1243 FILLER_0_22_83
*1244 FILLER_0_23_11
*1245 FILLER_0_23_113
*1246 FILLER_0_23_125
*1247 FILLER_0_23_137
*1248 FILLER_0_23_153
*1249 FILLER_0_23_157
*1250 FILLER_0_23_161
*1251 FILLER_0_23_172
*1252 FILLER_0_23_180
*1253 FILLER_0_23_188
*1254 FILLER_0_23_200
*1255 FILLER_0_23_209
*1256 FILLER_0_23_218
*1257 FILLER_0_23_225
*1258 FILLER_0_23_233
*1259 FILLER_0_23_237
*1260 FILLER_0_23_249
*1261 FILLER_0_23_255
*1262 FILLER_0_23_26
*1263 FILLER_0_23_276
*1264 FILLER_0_23_285
*1265 FILLER_0_23_3
*1266 FILLER_0_23_30
*1267 FILLER_0_23_306
*1268 FILLER_0_23_325
*1269 FILLER_0_23_333
*1270 FILLER_0_23_344
*1271 FILLER_0_23_350
*1272 FILLER_0_23_43
*1273 FILLER_0_23_55
*1274 FILLER_0_23_65
*1275 FILLER_0_23_87
*1276 FILLER_0_23_95
*1277 FILLER_0_24_103
*1278 FILLER_0_24_109
*1279 FILLER_0_24_131
*1280 FILLER_0_24_139
*1281 FILLER_0_24_141
*1282 FILLER_0_24_152
*1283 FILLER_0_24_164
*1284 FILLER_0_24_208
*1285 FILLER_0_24_214
*1286 FILLER_0_24_226
*1287 FILLER_0_24_237
*1288 FILLER_0_24_249
*1289 FILLER_0_24_253
*1290 FILLER_0_24_259
*1291 FILLER_0_24_26
*1292 FILLER_0_24_273
*1293 FILLER_0_24_289
*1294 FILLER_0_24_298
*1295 FILLER_0_24_3
*1296 FILLER_0_24_303
*1297 FILLER_0_24_307
*1298 FILLER_0_24_309
*1299 FILLER_0_24_315
*1300 FILLER_0_24_322
*1301 FILLER_0_24_334
*1302 FILLER_0_24_346
*1303 FILLER_0_24_350
*1304 FILLER_0_24_56
*1305 FILLER_0_24_68
*1306 FILLER_0_24_97
*1307 FILLER_0_25_120
*1308 FILLER_0_25_132
*1309 FILLER_0_25_15
*1310 FILLER_0_25_155
*1311 FILLER_0_25_167
*1312 FILLER_0_25_169
*1313 FILLER_0_25_177
*1314 FILLER_0_25_181
*1315 FILLER_0_25_188
*1316 FILLER_0_25_200
*1317 FILLER_0_25_208
*1318 FILLER_0_25_217
*1319 FILLER_0_25_232
*1320 FILLER_0_25_248
*1321 FILLER_0_25_259
*1322 FILLER_0_25_268
*1323 FILLER_0_25_27
*1324 FILLER_0_25_276
*1325 FILLER_0_25_292
*1326 FILLER_0_25_3
*1327 FILLER_0_25_303
*1328 FILLER_0_25_317
*1329 FILLER_0_25_328
*1330 FILLER_0_25_332
*1331 FILLER_0_25_348
*1332 FILLER_0_25_52
*1333 FILLER_0_25_73
*1334 FILLER_0_25_80
*1335 FILLER_0_25_94
*1336 FILLER_0_26_101
*1337 FILLER_0_26_110
*1338 FILLER_0_26_118
*1339 FILLER_0_26_135
*1340 FILLER_0_26_139
*1341 FILLER_0_26_157
*1342 FILLER_0_26_173
*1343 FILLER_0_26_177
*1344 FILLER_0_26_197
*1345 FILLER_0_26_201
*1346 FILLER_0_26_209
*1347 FILLER_0_26_221
*1348 FILLER_0_26_225
*1349 FILLER_0_26_230
*1350 FILLER_0_26_242
*1351 FILLER_0_26_250
*1352 FILLER_0_26_256
*1353 FILLER_0_26_262
*1354 FILLER_0_26_297
*1355 FILLER_0_26_305
*1356 FILLER_0_26_314
*1357 FILLER_0_26_326
*1358 FILLER_0_26_338
*1359 FILLER_0_26_35
*1360 FILLER_0_26_350
*1361 FILLER_0_26_45
*1362 FILLER_0_26_57
*1363 FILLER_0_26_81
*1364 FILLER_0_26_85
*1365 FILLER_0_26_97
*1366 FILLER_0_27_11
*1367 FILLER_0_27_110
*1368 FILLER_0_27_113
*1369 FILLER_0_27_124
*1370 FILLER_0_27_136
*1371 FILLER_0_27_148
*1372 FILLER_0_27_158
*1373 FILLER_0_27_166
*1374 FILLER_0_27_174
*1375 FILLER_0_27_181
*1376 FILLER_0_27_193
*1377 FILLER_0_27_197
*1378 FILLER_0_27_206
*1379 FILLER_0_27_218
*1380 FILLER_0_27_238
*1381 FILLER_0_27_247
*1382 FILLER_0_27_260
*1383 FILLER_0_27_274
*1384 FILLER_0_27_284
*1385 FILLER_0_27_290
*1386 FILLER_0_27_3
*1387 FILLER_0_27_302
*1388 FILLER_0_27_32
*1389 FILLER_0_27_326
*1390 FILLER_0_27_335
*1391 FILLER_0_27_344
*1392 FILLER_0_27_350
*1393 FILLER_0_27_38
*1394 FILLER_0_27_50
*1395 FILLER_0_27_57
*1396 FILLER_0_27_92
*1397 FILLER_0_28_105
*1398 FILLER_0_28_109
*1399 FILLER_0_28_11
*1400 FILLER_0_28_115
*1401 FILLER_0_28_137
*1402 FILLER_0_28_141
*1403 FILLER_0_28_149
*1404 FILLER_0_28_168
*1405 FILLER_0_28_174
*1406 FILLER_0_28_181
*1407 FILLER_0_28_192
*1408 FILLER_0_28_197
*1409 FILLER_0_28_205
*1410 FILLER_0_28_218
*1411 FILLER_0_28_230
*1412 FILLER_0_28_26
*1413 FILLER_0_28_29
*1414 FILLER_0_28_3
*1415 FILLER_0_28_309
*1416 FILLER_0_28_324
*1417 FILLER_0_28_337
*1418 FILLER_0_28_349
*1419 FILLER_0_28_71
*1420 FILLER_0_28_79
*1421 FILLER_0_28_83
*1422 FILLER_0_29_102
*1423 FILLER_0_29_106
*1424 FILLER_0_29_113
*1425 FILLER_0_29_124
*1426 FILLER_0_29_132
*1427 FILLER_0_29_156
*1428 FILLER_0_29_163
*1429 FILLER_0_29_167
*1430 FILLER_0_29_169
*1431 FILLER_0_29_181
*1432 FILLER_0_29_191
*1433 FILLER_0_29_206
*1434 FILLER_0_29_214
*1435 FILLER_0_29_225
*1436 FILLER_0_29_233
*1437 FILLER_0_29_238
*1438 FILLER_0_29_246
*1439 FILLER_0_29_252
*1440 FILLER_0_29_261
*1441 FILLER_0_29_277
*1442 FILLER_0_29_287
*1443 FILLER_0_29_296
*1444 FILLER_0_29_304
*1445 FILLER_0_29_325
*1446 FILLER_0_29_333
*1447 FILLER_0_29_35
*1448 FILLER_0_29_350
*1449 FILLER_0_29_47
*1450 FILLER_0_29_57
*1451 FILLER_0_29_78
*1452 FILLER_0_29_96
*1453 FILLER_0_2_109
*1454 FILLER_0_2_121
*1455 FILLER_0_2_133
*1456 FILLER_0_2_139
*1457 FILLER_0_2_141
*1458 FILLER_0_2_15
*1459 FILLER_0_2_153
*1460 FILLER_0_2_165
*1461 FILLER_0_2_177
*1462 FILLER_0_2_189
*1463 FILLER_0_2_195
*1464 FILLER_0_2_197
*1465 FILLER_0_2_209
*1466 FILLER_0_2_221
*1467 FILLER_0_2_233
*1468 FILLER_0_2_245
*1469 FILLER_0_2_251
*1470 FILLER_0_2_253
*1471 FILLER_0_2_265
*1472 FILLER_0_2_27
*1473 FILLER_0_2_277
*1474 FILLER_0_2_289
*1475 FILLER_0_2_29
*1476 FILLER_0_2_3
*1477 FILLER_0_2_301
*1478 FILLER_0_2_307
*1479 FILLER_0_2_309
*1480 FILLER_0_2_321
*1481 FILLER_0_2_333
*1482 FILLER_0_2_345
*1483 FILLER_0_2_41
*1484 FILLER_0_2_53
*1485 FILLER_0_2_65
*1486 FILLER_0_2_77
*1487 FILLER_0_2_83
*1488 FILLER_0_2_85
*1489 FILLER_0_2_97
*1490 FILLER_0_30_120
*1491 FILLER_0_30_15
*1492 FILLER_0_30_158
*1493 FILLER_0_30_175
*1494 FILLER_0_30_181
*1495 FILLER_0_30_188
*1496 FILLER_0_30_200
*1497 FILLER_0_30_217
*1498 FILLER_0_30_227
*1499 FILLER_0_30_233
*1500 FILLER_0_30_24
*1501 FILLER_0_30_251
*1502 FILLER_0_30_267
*1503 FILLER_0_30_284
*1504 FILLER_0_30_293
*1505 FILLER_0_30_3
*1506 FILLER_0_30_301
*1507 FILLER_0_30_307
*1508 FILLER_0_30_312
*1509 FILLER_0_30_324
*1510 FILLER_0_30_336
*1511 FILLER_0_30_340
*1512 FILLER_0_30_346
*1513 FILLER_0_30_350
*1514 FILLER_0_30_42
*1515 FILLER_0_30_51
*1516 FILLER_0_30_60
*1517 FILLER_0_30_72
*1518 FILLER_0_30_88
*1519 FILLER_0_31_100
*1520 FILLER_0_31_134
*1521 FILLER_0_31_142
*1522 FILLER_0_31_149
*1523 FILLER_0_31_159
*1524 FILLER_0_31_167
*1525 FILLER_0_31_169
*1526 FILLER_0_31_19
*1527 FILLER_0_31_196
*1528 FILLER_0_31_208
*1529 FILLER_0_31_220
*1530 FILLER_0_31_225
*1531 FILLER_0_31_237
*1532 FILLER_0_31_245
*1533 FILLER_0_31_252
*1534 FILLER_0_31_264
*1535 FILLER_0_31_269
*1536 FILLER_0_31_278
*1537 FILLER_0_31_281
*1538 FILLER_0_31_289
*1539 FILLER_0_31_301
*1540 FILLER_0_31_31
*1541 FILLER_0_31_313
*1542 FILLER_0_31_335
*1543 FILLER_0_31_337
*1544 FILLER_0_31_347
*1545 FILLER_0_31_37
*1546 FILLER_0_31_41
*1547 FILLER_0_31_53
*1548 FILLER_0_31_57
*1549 FILLER_0_31_76
*1550 FILLER_0_31_88
*1551 FILLER_0_32_10
*1552 FILLER_0_32_124
*1553 FILLER_0_32_134
*1554 FILLER_0_32_141
*1555 FILLER_0_32_168
*1556 FILLER_0_32_18
*1557 FILLER_0_32_180
*1558 FILLER_0_32_192
*1559 FILLER_0_32_201
*1560 FILLER_0_32_226
*1561 FILLER_0_32_242
*1562 FILLER_0_32_250
*1563 FILLER_0_32_256
*1564 FILLER_0_32_277
*1565 FILLER_0_32_286
*1566 FILLER_0_32_299
*1567 FILLER_0_32_3
*1568 FILLER_0_32_325
*1569 FILLER_0_32_34
*1570 FILLER_0_32_346
*1571 FILLER_0_32_350
*1572 FILLER_0_32_53
*1573 FILLER_0_32_85
*1574 FILLER_0_33_10
*1575 FILLER_0_33_101
*1576 FILLER_0_33_109
*1577 FILLER_0_33_113
*1578 FILLER_0_33_130
*1579 FILLER_0_33_142
*1580 FILLER_0_33_150
*1581 FILLER_0_33_156
*1582 FILLER_0_33_164
*1583 FILLER_0_33_169
*1584 FILLER_0_33_18
*1585 FILLER_0_33_187
*1586 FILLER_0_33_205
*1587 FILLER_0_33_217
*1588 FILLER_0_33_223
*1589 FILLER_0_33_225
*1590 FILLER_0_33_23
*1591 FILLER_0_33_237
*1592 FILLER_0_33_245
*1593 FILLER_0_33_254
*1594 FILLER_0_33_266
*1595 FILLER_0_33_274
*1596 FILLER_0_33_281
*1597 FILLER_0_33_285
*1598 FILLER_0_33_293
*1599 FILLER_0_33_3
*1600 FILLER_0_33_300
*1601 FILLER_0_33_312
*1602 FILLER_0_33_319
*1603 FILLER_0_33_327
*1604 FILLER_0_33_343
*1605 FILLER_0_33_35
*1606 FILLER_0_33_57
*1607 FILLER_0_33_69
*1608 FILLER_0_33_78
*1609 FILLER_0_33_97
*1610 FILLER_0_34_103
*1611 FILLER_0_34_110
*1612 FILLER_0_34_122
*1613 FILLER_0_34_146
*1614 FILLER_0_34_161
*1615 FILLER_0_34_169
*1616 FILLER_0_34_178
*1617 FILLER_0_34_19
*1618 FILLER_0_34_197
*1619 FILLER_0_34_205
*1620 FILLER_0_34_209
*1621 FILLER_0_34_216
*1622 FILLER_0_34_220
*1623 FILLER_0_34_224
*1624 FILLER_0_34_243
*1625 FILLER_0_34_26
*1626 FILLER_0_34_269
*1627 FILLER_0_34_277
*1628 FILLER_0_34_287
*1629 FILLER_0_34_299
*1630 FILLER_0_34_306
*1631 FILLER_0_34_325
*1632 FILLER_0_34_334
*1633 FILLER_0_34_34
*1634 FILLER_0_34_346
*1635 FILLER_0_34_350
*1636 FILLER_0_34_38
*1637 FILLER_0_34_48
*1638 FILLER_0_34_63
*1639 FILLER_0_34_67
*1640 FILLER_0_34_85
*1641 FILLER_0_35_105
*1642 FILLER_0_35_111
*1643 FILLER_0_35_12