*SPEF "ieee 1481-1999"
*DESIGN "tt_um_marno_factorize"
*DATE "11:11:11 Fri 11 11, 1111"
*VENDOR "OpenRCX"
*PROGRAM "Parallel Extraction"
*VERSION "1.0"
*DESIGN_FLOW "NAME_SCOPE LOCAL" "PIN_CAP NONE"
*DIVIDER /
*DELIMITER :
*BUS_DELIMITER []
*T_UNIT 1 NS
*C_UNIT 1 PF
*R_UNIT 1 OHM
*L_UNIT 1 HENRY

*NAME_MAP
*3 clk
*4 ena
*5 rst_n
*6 ui_in[0]
*7 ui_in[1]
*8 ui_in[2]
*9 ui_in[3]
*10 ui_in[4]
*11 ui_in[5]
*12 ui_in[6]
*13 ui_in[7]
*14 uio_in[0]
*15 uio_in[1]
*16 uio_in[2]
*17 uio_in[3]
*18 uio_in[4]
*19 uio_in[5]
*20 uio_in[6]
*21 uio_in[7]
*22 net11
*23 net12
*24 net13
*25 net14
*26 net15
*27 net16
*28 net17
*29 net18
*30 uio_out[0]
*31 uio_out[1]
*32 uio_out[2]
*33 uio_out[3]
*34 uio_out[4]
*35 uio_out[5]
*36 uio_out[6]
*37 uio_out[7]
*38 uo_out[0]
*39 uo_out[1]
*40 uo_out[2]
*41 uo_out[3]
*42 uo_out[4]
*43 uo_out[5]
*44 uo_out[6]
*45 net10
*46 _0000_
*47 _0001_
*48 _0002_
*49 _0003_
*50 _0004_
*51 _0005_
*52 _0006_
*53 _0007_
*54 _0008_
*55 _0009_
*56 _0010_
*57 _0011_
*58 _0012_
*59 _0013_
*60 _0014_
*61 _0015_
*62 _0016_
*63 _0017_
*64 _0018_
*65 _0019_
*66 _0020_
*67 _0021_
*68 _0022_
*69 _0023_
*70 _0024_
*71 _0025_
*72 _0026_
*73 _0027_
*74 _0028_
*75 _0029_
*76 _0030_
*77 _0031_
*78 _0032_
*79 _0033_
*80 _0034_
*81 _0035_
*82 _0036_
*83 _0037_
*84 _0038_
*85 _0039_
*86 _0040_
*87 _0041_
*88 _0042_
*89 _0043_
*90 _0044_
*91 _0045_
*92 _0046_
*93 _0047_
*94 _0048_
*95 _0049_
*96 _0050_
*97 _0051_
*98 _0052_
*99 _0053_
*100 _0054_
*101 _0055_
*102 _0056_
*103 _0057_
*104 _0058_
*105 _0059_
*106 _0060_
*107 _0061_
*108 _0062_
*109 _0063_
*110 _0064_
*111 _0065_
*112 _0066_
*113 _0067_
*114 _0068_
*115 _0069_
*116 _0070_
*117 _0071_
*118 _0072_
*119 _0073_
*120 _0074_
*121 _0075_
*122 _0076_
*123 _0077_
*124 _0078_
*125 _0079_
*126 _0080_
*127 _0081_
*128 _0082_
*129 _0083_
*130 _0084_
*131 _0085_
*132 _0086_
*133 _0087_
*134 _0088_
*135 _0089_
*136 _0090_
*137 _0091_
*138 _0092_
*139 _0093_
*140 _0094_
*141 _0095_
*142 _0096_
*143 _0097_
*144 _0098_
*145 _0099_
*146 _0100_
*147 _0101_
*148 _0102_
*149 _0103_
*150 _0104_
*151 _0105_
*152 _0106_
*153 _0107_
*154 _0108_
*155 _0109_
*156 _0110_
*157 _0111_
*158 _0112_
*159 _0113_
*160 _0114_
*161 _0115_
*162 _0116_
*163 _0117_
*164 _0118_
*165 _0119_
*166 _0120_
*167 _0121_
*168 _0122_
*169 _0123_
*170 _0124_
*171 _0125_
*172 _0126_
*173 _0127_
*174 _0128_
*175 _0129_
*176 _0130_
*177 _0131_
*178 _0132_
*179 _0133_
*180 _0134_
*181 _0135_
*182 _0136_
*183 _0137_
*184 _0138_
*185 _0139_
*186 _0140_
*187 _0141_
*188 _0142_
*189 _0143_
*190 _0144_
*191 _0145_
*192 _0146_
*193 _0147_
*194 _0148_
*195 _0149_
*196 _0150_
*197 _0151_
*198 _0152_
*199 _0153_
*200 _0154_
*201 _0155_
*202 _0156_
*203 _0157_
*204 _0158_
*205 _0159_
*206 _0160_
*207 _0161_
*208 _0162_
*209 _0163_
*210 _0164_
*211 _0165_
*212 _0166_
*213 _0167_
*214 _0168_
*215 _0169_
*216 _0170_
*217 _0171_
*218 _0172_
*219 _0173_
*220 _0174_
*221 _0175_
*222 _0176_
*223 _0177_
*224 _0178_
*225 _0179_
*226 _0180_
*227 _0181_
*228 _0182_
*229 _0183_
*230 _0184_
*231 _0185_
*232 _0186_
*233 _0187_
*234 _0188_
*235 _0189_
*236 _0190_
*237 _0191_
*238 _0192_
*239 _0193_
*240 _0194_
*241 _0195_
*242 _0196_
*243 _0197_
*244 _0198_
*245 _0199_
*246 _0200_
*247 _0201_
*248 _0202_
*249 _0203_
*250 _0204_
*251 _0205_
*252 _0206_
*253 _0207_
*254 _0208_
*255 _0209_
*256 _0210_
*257 _0211_
*258 _0212_
*259 _0213_
*260 _0214_
*261 _0215_
*262 _0216_
*263 _0217_
*264 _0218_
*265 _0219_
*266 _0220_
*267 _0221_
*268 _0222_
*269 _0223_
*270 _0224_
*271 _0225_
*272 _0226_
*273 _0227_
*274 _0228_
*275 _0229_
*276 _0230_
*277 _0231_
*278 _0232_
*279 _0233_
*280 _0234_
*281 _0235_
*282 _0236_
*283 _0237_
*284 _0238_
*285 _0239_
*286 _0240_
*287 _0241_
*288 _0242_
*289 _0243_
*290 _0244_
*291 _0245_
*292 _0246_
*293 _0247_
*294 _0248_
*295 _0249_
*296 _0250_
*297 _0251_
*298 _0252_
*299 _0253_
*300 _0254_
*301 _0255_
*302 _0256_
*303 _0257_
*304 _0258_
*305 _0259_
*306 _0260_
*307 _0261_
*308 _0262_
*309 _0263_
*310 _0264_
*311 _0265_
*312 _0266_
*313 _0267_
*314 _0268_
*315 _0269_
*316 _0270_
*317 _0271_
*318 _0272_
*319 _0273_
*320 _0274_
*321 _0275_
*322 _0276_
*323 _0277_
*324 _0278_
*325 _0279_
*326 _0280_
*327 _0281_
*328 _0282_
*329 _0283_
*330 _0284_
*331 _0285_
*332 _0286_
*333 _0287_
*334 _0288_
*335 _0289_
*336 _0290_
*337 _0291_
*338 _0292_
*339 _0293_
*340 _0294_
*341 _0295_
*342 _0296_
*343 _0297_
*344 _0298_
*345 _0299_
*346 _0300_
*347 _0301_
*348 _0302_
*349 _0303_
*350 _0304_
*351 _0305_
*352 _0306_
*353 _0307_
*354 _0308_
*355 _0309_
*356 _0310_
*357 _0311_
*358 _0312_
*359 _0313_
*360 _0314_
*361 _0315_
*362 _0316_
*363 _0317_
*364 _0318_
*365 _0319_
*366 _0320_
*367 _0321_
*368 _0322_
*369 _0323_
*370 _0324_
*371 _0325_
*372 _0326_
*373 _0327_
*374 _0328_
*375 _0329_
*376 _0330_
*377 _0331_
*378 _0332_
*379 _0333_
*380 _0334_
*381 _0335_
*382 _0336_
*383 _0337_
*384 _0338_
*385 _0339_
*386 _0340_
*387 _0341_
*388 _0342_
*389 _0343_
*390 _0344_
*391 _0345_
*392 _0346_
*393 _0347_
*394 _0348_
*395 _0349_
*396 _0350_
*397 _0351_
*398 _0352_
*399 _0353_
*400 _0354_
*401 _0355_
*402 _0356_
*403 _0357_
*404 _0358_
*405 _0359_
*406 _0360_
*407 _0361_
*408 _0362_
*409 _0363_
*410 _0364_
*411 _0365_
*412 _0366_
*413 _0367_
*414 _0368_
*415 _0369_
*416 _0370_
*417 _0371_
*418 _0372_
*419 _0373_
*420 _0374_
*421 _0375_
*422 _0376_
*423 _0377_
*424 _0378_
*425 _0379_
*426 _0380_
*427 _0381_
*428 _0382_
*429 _0383_
*430 _0384_
*431 _0385_
*432 _0386_
*433 _0387_
*434 _0388_
*435 _0389_
*436 _0390_
*437 _0391_
*438 _0392_
*439 _0393_
*440 _0394_
*441 _0395_
*442 _0396_
*443 _0397_
*444 _0398_
*445 _0399_
*446 _0400_
*447 _0401_
*448 _0402_
*449 _0403_
*450 _0404_
*451 _0405_
*452 _0406_
*453 _0407_
*454 _0408_
*455 _0409_
*456 _0410_
*457 _0411_
*458 _0412_
*459 _0413_
*460 _0414_
*461 _0415_
*462 _0416_
*463 _0417_
*464 _0418_
*465 _0419_
*466 _0420_
*467 _0421_
*468 _0422_
*469 _0423_
*470 _0424_
*471 _0425_
*472 _0426_
*473 _0427_
*474 _0428_
*475 _0429_
*476 _0430_
*477 _0431_
*478 _0432_
*479 _0433_
*480 _0434_
*481 _0435_
*482 _0436_
*483 _0437_
*484 _0438_
*485 _0439_
*486 _0440_
*487 _0441_
*488 _0442_
*489 _0443_
*490 _0444_
*491 _0445_
*492 _0446_
*493 _0447_
*494 _0448_
*495 _0449_
*496 _0450_
*497 _0451_
*498 _0452_
*499 _0453_
*500 _0454_
*501 _0455_
*502 _0456_
*503 _0457_
*504 _0458_
*505 _0459_
*506 _0460_
*507 _0461_
*508 _0462_
*509 _0463_
*510 _0464_
*511 _0465_
*512 _0466_
*513 _0467_
*514 _0468_
*515 _0469_
*516 _0470_
*517 _0471_
*518 _0472_
*519 _0473_
*520 _0474_
*521 _0475_
*522 _0476_
*523 _0477_
*524 _0478_
*525 _0479_
*526 _0480_
*527 _0481_
*528 _0482_
*529 _0483_
*530 _0484_
*531 _0485_
*532 _0486_
*533 _0487_
*534 _0488_
*535 _0489_
*536 _0490_
*537 _0491_
*538 _0492_
*539 _0493_
*540 _0494_
*541 _0495_
*542 _0496_
*543 _0497_
*544 _0498_
*545 _0499_
*546 _0500_
*547 _0501_
*548 _0502_
*549 _0503_
*550 _0504_
*551 _0505_
*552 _0506_
*553 _0507_
*554 _0508_
*555 _0509_
*556 _0510_
*557 _0511_
*558 _0512_
*559 _0513_
*560 _0514_
*561 _0515_
*562 _0516_
*563 _0517_
*564 _0518_
*565 _0519_
*566 _0520_
*567 _0521_
*568 _0522_
*569 _0523_
*570 _0524_
*571 _0525_
*572 _0526_
*573 _0527_
*574 _0528_
*575 _0529_
*576 _0530_
*577 _0531_
*578 _0532_
*579 _0533_
*580 _0534_
*581 _0535_
*582 _0536_
*583 _0537_
*584 _0538_
*585 _0539_
*586 _0540_
*587 _0541_
*588 _0542_
*589 _0543_
*590 _0544_
*591 _0545_
*592 _0546_
*593 _0547_
*594 _0548_
*595 _0549_
*596 _0550_
*597 _0551_
*598 _0552_
*599 _0553_
*600 _0554_
*601 _0555_
*602 _0556_
*603 _0557_
*604 _0558_
*605 _0559_
*606 _0560_
*607 _0561_
*608 _0562_
*609 clknet_0_clk
*610 clknet_3_0__leaf_clk
*611 clknet_3_1__leaf_clk
*612 clknet_3_2__leaf_clk
*613 clknet_3_3__leaf_clk
*614 clknet_3_4__leaf_clk
*615 clknet_3_5__leaf_clk
*616 clknet_3_6__leaf_clk
*617 clknet_3_7__leaf_clk
*618 factorizer\.factors\[0\]
*619 factorizer\.factors\[10\]
*620 factorizer\.factors\[11\]
*621 factorizer\.factors\[12\]
*622 factorizer\.factors\[13\]
*623 factorizer\.factors\[15\]
*624 factorizer\.factors\[17\]
*625 factorizer\.factors\[1\]
*626 factorizer\.factors\[2\]
*627 factorizer\.factors\[3\]
*628 factorizer\.factors\[4\]
*629 factorizer\.factors\[5\]
*630 factorizer\.factors\[6\]
*631 factorizer\.factors\[7\]
*632 factorizer\.factors\[8\]
*633 factorizer\.factors\[9\]
*634 factorizer\.mod_eleven\[0\]
*635 factorizer\.mod_eleven\[1\]
*636 factorizer\.mod_eleven\[2\]
*637 factorizer\.mod_eleven\[3\]
*638 factorizer\.mod_eleven\[4\]
*639 factorizer\.mod_eleven\[5\]
*640 factorizer\.mod_five\[0\]
*641 factorizer\.mod_five\[1\]
*642 factorizer\.mod_five\[2\]
*643 factorizer\.mod_five\[3\]
*644 factorizer\.mod_five\[4\]
*645 factorizer\.mod_nine\[0\]
*646 factorizer\.mod_nine\[1\]
*647 factorizer\.mod_nine\[2\]
*648 factorizer\.mod_nine\[3\]
*649 factorizer\.mod_nine\[4\]
*650 factorizer\.mod_nineteen\[0\]
*651 factorizer\.mod_nineteen\[1\]
*652 factorizer\.mod_nineteen\[2\]
*653 factorizer\.mod_nineteen\[3\]
*654 factorizer\.mod_nineteen\[4\]
*655 factorizer\.mod_nineteen\[5\]
*656 factorizer\.mod_nineteen\[6\]
*657 factorizer\.mod_seven\[0\]
*658 factorizer\.mod_seven\[1\]
*659 factorizer\.mod_seven\[2\]
*660 factorizer\.mod_seven\[3\]
*661 factorizer\.mod_seven\[4\]
*662 factorizer\.mod_seventeen\[0\]
*663 factorizer\.mod_seventeen\[1\]
*664 factorizer\.mod_seventeen\[2\]
*665 factorizer\.mod_seventeen\[3\]
*666 factorizer\.mod_seventeen\[4\]
*667 factorizer\.mod_seventeen\[5\]
*668 factorizer\.mod_seventeen\[6\]
*669 factorizer\.mod_thirteen\[0\]
*670 factorizer\.mod_thirteen\[1\]
*671 factorizer\.mod_thirteen\[2\]
*672 factorizer\.mod_thirteen\[3\]
*673 factorizer\.mod_thirteen\[4\]
*674 factorizer\.mod_thirteen\[5\]
*675 factorizer\.mod_three\[0\]
*676 factorizer\.mod_three\[1\]
*677 factorizer\.mod_three\[2\]
*678 factorizer\.mod_three\[3\]
*679 net1
*680 net19
*681 net2
*682 net20
*683 net21
*684 net22
*685 net23
*686 net24
*687 net25
*688 net26
*689 net27
*690 net28
*691 net29
*692 net3
*693 net30
*694 net31
*695 net32
*696 net33
*697 net34
*698 net35
*699 net36
*700 net37
*701 net38
*702 net39
*703 net4
*704 net40
*705 net41
*706 net42
*707 net43
*708 net44
*709 net45
*710 net46
*711 net5
*712 net6
*713 net7
*714 net8
*715 net9
*716 new_digit\[0\]
*717 new_digit\[1\]
*718 new_digit\[2\]
*719 new_digit\[3\]
*720 old_input\[0\]
*721 old_input\[1\]
*722 old_input\[2\]
*723 old_input\[3\]
*724 old_input\[4\]
*725 old_input\[5\]
*726 old_input\[6\]
*727 old_input\[7\]
*728 second_counter\[0\]
*729 second_counter\[10\]
*730 second_counter\[11\]
*731 second_counter\[12\]
*732 second_counter\[13\]
*733 second_counter\[14\]
*734 second_counter\[15\]
*735 second_counter\[16\]
*736 second_counter\[17\]
*737 second_counter\[18\]
*738 second_counter\[19\]
*739 second_counter\[1\]
*740 second_counter\[20\]
*741 second_counter\[21\]
*742 second_counter\[22\]
*743 second_counter\[23\]
*744 second_counter\[2\]
*745 second_counter\[3\]
*746 second_counter\[4\]
*747 second_counter\[5\]
*748 second_counter\[6\]
*749 second_counter\[7\]
*750 second_counter\[8\]
*751 second_counter\[9\]
*752 seg7decoder\.counter\[0\]
*753 seg7decoder\.counter\[1\]
*754 seg7decoder\.counter\[2\]
*755 seg7decoder\.counter\[3\]
*756 FILLER_0_0_109
*757 FILLER_0_0_113
*758 FILLER_0_0_125
*759 FILLER_0_0_137
*760 FILLER_0_0_141
*761 FILLER_0_0_15
*762 FILLER_0_0_153
*763 FILLER_0_0_165
*764 FILLER_0_0_169
*765 FILLER_0_0_181
*766 FILLER_0_0_193
*767 FILLER_0_0_197
*768 FILLER_0_0_209
*769 FILLER_0_0_221
*770 FILLER_0_0_225
*771 FILLER_0_0_237
*772 FILLER_0_0_249
*773 FILLER_0_0_253
*774 FILLER_0_0_265
*775 FILLER_0_0_27
*776 FILLER_0_0_277
*777 FILLER_0_0_281
*778 FILLER_0_0_29
*779 FILLER_0_0_293
*780 FILLER_0_0_3
*781 FILLER_0_0_305
*782 FILLER_0_0_309
*783 FILLER_0_0_321
*784 FILLER_0_0_333
*785 FILLER_0_0_337
*786 FILLER_0_0_349
*787 FILLER_0_0_41
*788 FILLER_0_0_53
*789 FILLER_0_0_57
*790 FILLER_0_0_69
*791 FILLER_0_0_81
*792 FILLER_0_0_85
*793 FILLER_0_0_97
*794 FILLER_0_10_109
*795 FILLER_0_10_121
*796 FILLER_0_10_133
*797 FILLER_0_10_139
*798 FILLER_0_10_141
*799 FILLER_0_10_15
*800 FILLER_0_10_153
*801 FILLER_0_10_165
*802 FILLER_0_10_185
*803 FILLER_0_10_193
*804 FILLER_0_10_197
*805 FILLER_0_10_209
*806 FILLER_0_10_217
*807 FILLER_0_10_238
*808 FILLER_0_10_250
*809 FILLER_0_10_253
*810 FILLER_0_10_265
*811 FILLER_0_10_27
*812 FILLER_0_10_282
*813 FILLER_0_10_29
*814 FILLER_0_10_3
*815 FILLER_0_10_307
*816 FILLER_0_10_309
*817 FILLER_0_10_321
*818 FILLER_0_10_333
*819 FILLER_0_10_345
*820 FILLER_0_10_41
*821 FILLER_0_10_53
*822 FILLER_0_10_65
*823 FILLER_0_10_77
*824 FILLER_0_10_83
*825 FILLER_0_10_85
*826 FILLER_0_10_97
*827 FILLER_0_11_105
*828 FILLER_0_11_111
*829 FILLER_0_11_113
*830 FILLER_0_11_125
*831 FILLER_0_11_130
*832 FILLER_0_11_142
*833 FILLER_0_11_15
*834 FILLER_0_11_154
*835 FILLER_0_11_166
*836 FILLER_0_11_169
*837 FILLER_0_11_181
*838 FILLER_0_11_189
*839 FILLER_0_11_209
*840 FILLER_0_11_221
*841 FILLER_0_11_225
*842 FILLER_0_11_249
*843 FILLER_0_11_261
*844 FILLER_0_11_27
*845 FILLER_0_11_278
*846 FILLER_0_11_284
*847 FILLER_0_11_293
*848 FILLER_0_11_3
*849 FILLER_0_11_305
*850 FILLER_0_11_322
*851 FILLER_0_11_334
*852 FILLER_0_11_337
*853 FILLER_0_11_349
*854 FILLER_0_11_39
*855 FILLER_0_11_51
*856 FILLER_0_11_55
*857 FILLER_0_11_57
*858 FILLER_0_11_69
*859 FILLER_0_11_81
*860 FILLER_0_11_93
*861 FILLER_0_12_109
*862 FILLER_0_12_121
*863 FILLER_0_12_139
*864 FILLER_0_12_141
*865 FILLER_0_12_15
*866 FILLER_0_12_163
*867 FILLER_0_12_171
*868 FILLER_0_12_182
*869 FILLER_0_12_194
*870 FILLER_0_12_197
*871 FILLER_0_12_209
*872 FILLER_0_12_220
*873 FILLER_0_12_228
*874 FILLER_0_12_239
*875 FILLER_0_12_251
*876 FILLER_0_12_27
*877 FILLER_0_12_285
*878 FILLER_0_12_29
*879 FILLER_0_12_3
*880 FILLER_0_12_309
*881 FILLER_0_12_321
*882 FILLER_0_12_345
*883 FILLER_0_12_41
*884 FILLER_0_12_53
*885 FILLER_0_12_65
*886 FILLER_0_12_77
*887 FILLER_0_12_83
*888 FILLER_0_12_85
*889 FILLER_0_12_97
*890 FILLER_0_13_105
*891 FILLER_0_13_111
*892 FILLER_0_13_113
*893 FILLER_0_13_130
*894 FILLER_0_13_15
*895 FILLER_0_13_152
*896 FILLER_0_13_162
*897 FILLER_0_13_169
*898 FILLER_0_13_173
*899 FILLER_0_13_193
*900 FILLER_0_13_208
*901 FILLER_0_13_214
*902 FILLER_0_13_228
*903 FILLER_0_13_240
*904 FILLER_0_13_244
*905 FILLER_0_13_248
*906 FILLER_0_13_260
*907 FILLER_0_13_27
*908 FILLER_0_13_272
*909 FILLER_0_13_281
*910 FILLER_0_13_293
*911 FILLER_0_13_3
*912 FILLER_0_13_305
*913 FILLER_0_13_313
*914 FILLER_0_13_332
*915 FILLER_0_13_349
*916 FILLER_0_13_39
*917 FILLER_0_13_51
*918 FILLER_0_13_55
*919 FILLER_0_13_57
*920 FILLER_0_13_69
*921 FILLER_0_13_81
*922 FILLER_0_14_101
*923 FILLER_0_14_113
*924 FILLER_0_14_120
*925 FILLER_0_14_141
*926 FILLER_0_14_15
*927 FILLER_0_14_167
*928 FILLER_0_14_179
*929 FILLER_0_14_193
*930 FILLER_0_14_197
*931 FILLER_0_14_209
*932 FILLER_0_14_221
*933 FILLER_0_14_230
*934 FILLER_0_14_241
*935 FILLER_0_14_27
*936 FILLER_0_14_272
*937 FILLER_0_14_277
*938 FILLER_0_14_283
*939 FILLER_0_14_29
*940 FILLER_0_14_3
*941 FILLER_0_14_302
*942 FILLER_0_14_325
*943 FILLER_0_14_333
*944 FILLER_0_14_343
*945 FILLER_0_14_41
*946 FILLER_0_14_45
*947 FILLER_0_14_62
*948 FILLER_0_14_74
*949 FILLER_0_14_82
*950 FILLER_0_14_85
*951 FILLER_0_14_97
*952 FILLER_0_15_101
*953 FILLER_0_15_105
*954 FILLER_0_15_109
*955 FILLER_0_15_113
*956 FILLER_0_15_125
*957 FILLER_0_15_133
*958 FILLER_0_15_15
*959 FILLER_0_15_150
*960 FILLER_0_15_158
*961 FILLER_0_15_167
*962 FILLER_0_15_174
*963 FILLER_0_15_189
*964 FILLER_0_15_221
*965 FILLER_0_15_225
*966 FILLER_0_15_240
*967 FILLER_0_15_252
*968 FILLER_0_15_260
*969 FILLER_0_15_266
*970 FILLER_0_15_27
*971 FILLER_0_15_278
*972 FILLER_0_15_286
*973 FILLER_0_15_298
*974 FILLER_0_15_3
*975 FILLER_0_15_310
*976 FILLER_0_15_318
*977 FILLER_0_15_337
*978 FILLER_0_15_349
*979 FILLER_0_15_39
*980 FILLER_0_15_51
*981 FILLER_0_15_55
*982 FILLER_0_15_57
*983 FILLER_0_15_66
*984 FILLER_0_15_89
*985 FILLER_0_16_133
*986 FILLER_0_16_139
*987 FILLER_0_16_145
*988 FILLER_0_16_15
*989 FILLER_0_16_153
*990 FILLER_0_16_171
*991 FILLER_0_16_177
*992 FILLER_0_16_188
*993 FILLER_0_16_197
*994 FILLER_0_16_209
*995 FILLER_0_16_221
*996 FILLER_0_16_233
*997 FILLER_0_16_239
*998 FILLER_0_16_247
*999 FILLER_0_16_251
*1000 FILLER_0_16_260
*1001 FILLER_0_16_27
*1002 FILLER_0_16_272
*1003 FILLER_0_16_284
*1004 FILLER_0_16_299
*1005 FILLER_0_16_3
*1006 FILLER_0_16_307
*1007 FILLER_0_16_309
*1008 FILLER_0_16_314
*1009 FILLER_0_16_348
*1010 FILLER_0_16_45
*1011 FILLER_0_16_49
*1012 FILLER_0_16_60
*1013 FILLER_0_16_72
*1014 FILLER_0_16_78
*1015 FILLER_0_16_85
*1016 FILLER_0_16_91
*1017 FILLER_0_17_110
*1018 FILLER_0_17_113
*1019 FILLER_0_17_122
*1020 FILLER_0_17_134
*1021 FILLER_0_17_140
*1022 FILLER_0_17_144
*1023 FILLER_0_17_156
*1024 FILLER_0_17_16
*1025 FILLER_0_17_165
*1026 FILLER_0_17_172
*1027 FILLER_0_17_180
*1028 FILLER_0_17_195
*1029 FILLER_0_17_203
*1030 FILLER_0_17_214
*1031 FILLER_0_17_222
*1032 FILLER_0_17_235
*1033 FILLER_0_17_247
*1034 FILLER_0_17_259
*1035 FILLER_0_17_26
*1036 FILLER_0_17_276
*1037 FILLER_0_17_281
*1038 FILLER_0_17_294
*1039 FILLER_0_17_3
*1040 FILLER_0_17_302
*1041 FILLER_0_17_329
*1042 FILLER_0_17_33
*1043 FILLER_0_17_335
*1044 FILLER_0_17_337
*1045 FILLER_0_17_349
*1046 FILLER_0_17_45
*1047 FILLER_0_17_53
*1048 FILLER_0_17_57
*1049 FILLER_0_17_82
*1050 FILLER_0_17_9
*1051 FILLER_0_18_105
*1052 FILLER_0_18_127
*1053 FILLER_0_18_139
*1054 FILLER_0_18_148
*1055 FILLER_0_18_159
*1056 FILLER_0_18_167
*1057 FILLER_0_18_179
*1058 FILLER_0_18_194
*1059 FILLER_0_18_197
*1060 FILLER_0_18_217
*1061 FILLER_0_18_240
*1062 FILLER_0_18_25
*1063 FILLER_0_18_250
*1064 FILLER_0_18_277
*1065 FILLER_0_18_285
*1066 FILLER_0_18_298
*1067 FILLER_0_18_3
*1068 FILLER_0_18_304
*1069 FILLER_0_18_320
*1070 FILLER_0_18_344
*1071 FILLER_0_18_350
*1072 FILLER_0_18_47
*1073 FILLER_0_18_68
*1074 FILLER_0_18_80
*1075 FILLER_0_19_106
*1076 FILLER_0_19_11
*1077 FILLER_0_19_123
*1078 FILLER_0_19_132
*1079 FILLER_0_19_142
*1080 FILLER_0_19_148
*1081 FILLER_0_19_160
*1082 FILLER_0_19_169
*1083 FILLER_0_19_176
*1084 FILLER_0_19_19
*1085 FILLER_0_19_194
*1086 FILLER_0_19_206
*1087 FILLER_0_19_218
*1088 FILLER_0_19_228
*1089 FILLER_0_19_240
*1090 FILLER_0_19_255
*1091 FILLER_0_19_259
*1092 FILLER_0_19_268
*1093 FILLER_0_19_274
*1094 FILLER_0_19_281
*1095 FILLER_0_19_293
*1096 FILLER_0_19_3
*1097 FILLER_0_19_305
*1098 FILLER_0_19_31
*1099 FILLER_0_19_317
*1100 FILLER_0_19_321
*1101 FILLER_0_19_333
*1102 FILLER_0_19_337
*1103 FILLER_0_19_349
*1104 FILLER_0_19_45
*1105 FILLER_0_19_53
*1106 FILLER_0_19_57
*1107 FILLER_0_19_85
*1108 FILLER_0_1_105
*1109 FILLER_0_1_111
*1110 FILLER_0_1_113
*1111 FILLER_0_1_125
*1112 FILLER_0_1_137
*1113 FILLER_0_1_149
*1114 FILLER_0_1_15
*1115 FILLER_0_1_161
*1116 FILLER_0_1_167
*1117 FILLER_0_1_169
*1118 FILLER_0_1_181
*1119 FILLER_0_1_193
*1120 FILLER_0_1_205
*1121 FILLER_0_1_217
*1122 FILLER_0_1_223
*1123 FILLER_0_1_225
*1124 FILLER_0_1_237
*1125 FILLER_0_1_249
*1126 FILLER_0_1_261
*1127 FILLER_0_1_27
*1128 FILLER_0_1_273
*1129 FILLER_0_1_279
*1130 FILLER_0_1_281
*1131 FILLER_0_1_293
*1132 FILLER_0_1_3
*1133 FILLER_0_1_305
*1134 FILLER_0_1_317
*1135 FILLER_0_1_329
*1136 FILLER_0_1_335
*1137 FILLER_0_1_337
*1138 FILLER_0_1_349
*1139 FILLER_0_1_39
*1140 FILLER_0_1_51
*1141 FILLER_0_1_55
*1142 FILLER_0_1_57
*1143 FILLER_0_1_69
*1144 FILLER_0_1_81
*1145 FILLER_0_1_93
*1146 FILLER_0_20_101
*1147 FILLER_0_20_123
*1148 FILLER_0_20_128
*1149 FILLER_0_20_141
*1150 FILLER_0_20_149
*1151 FILLER_0_20_161
*1152 FILLER_0_20_165
*1153 FILLER_0_20_169
*1154 FILLER_0_20_181
*1155 FILLER_0_20_195
*1156 FILLER_0_20_197
*1157 FILLER_0_20_213
*1158 FILLER_0_20_229
*1159 FILLER_0_20_23
*1160 FILLER_0_20_235
*1161 FILLER_0_20_244
*1162 FILLER_0_20_253
*1163 FILLER_0_20_265
*1164 FILLER_0_20_27
*1165 FILLER_0_20_274
*1166 FILLER_0_20_287
*1167 FILLER_0_20_29
*1168 FILLER_0_20_295
*1169 FILLER_0_20_3
*1170 FILLER_0_20_309
*1171 FILLER_0_20_315
*1172 FILLER_0_20_48
*1173 FILLER_0_20_56
*1174 FILLER_0_20_74
*1175 FILLER_0_20_82
*1176 FILLER_0_21_110
*1177 FILLER_0_21_113
*1178 FILLER_0_21_13
*1179 FILLER_0_21_137
*1180 FILLER_0_21_149
*1181 FILLER_0_21_153
*1182 FILLER_0_21_158
*1183 FILLER_0_21_166
*1184 FILLER_0_21_169
*1185 FILLER_0_21_17
*1186 FILLER_0_21_175
*1187 FILLER_0_21_187
*1188 FILLER_0_21_199
*1189 FILLER_0_21_203
*1190 FILLER_0_21_208
*1191 FILLER_0_21_220
*1192 FILLER_0_21_225
*1193 FILLER_0_21_229
*1194 FILLER_0_21_234
*1195 FILLER_0_21_242
*1196 FILLER_0_21_253
*1197 FILLER_0_21_257
*1198 FILLER_0_21_264
*1199 FILLER_0_21_270
*1200 FILLER_0_21_278
*1201 FILLER_0_21_284
*1202 FILLER_0_21_296
*1203 FILLER_0_21_3
*1204 FILLER_0_21_30
*1205 FILLER_0_21_306
*1206 FILLER_0_21_321
*1207 FILLER_0_21_329
*1208 FILLER_0_21_335
*1209 FILLER_0_21_337
*1210 FILLER_0_21_349
*1211 FILLER_0_21_38
*1212 FILLER_0_21_46
*1213 FILLER_0_21_9
*1214 FILLER_0_21_98
*1215 FILLER_0_22_112
*1216 FILLER_0_22_124
*1217 FILLER_0_22_138
*1218 FILLER_0_22_165
*1219 FILLER_0_22_194
*1220 FILLER_0_22_204
*1221 FILLER_0_22_225
*1222 FILLER_0_22_239
*1223 FILLER_0_22_251
*1224 FILLER_0_22_253
*1225 FILLER_0_22_261
*1226 FILLER_0_22_27
*1227 FILLER_0_22_275
*1228 FILLER_0_22_288
*1229 FILLER_0_22_296
*1230 FILLER_0_22_309
*1231 FILLER_0_22_315
*1232 FILLER_0_22_331
*1233 FILLER_0_22_349
*1234 FILLER_0_22_41
*1235 FILLER_0_22_47
*1236 FILLER_0_22_62
*1237 FILLER_0_22_74
*1238 FILLER_0_22_82
*1239 FILLER_0_22_85
*1240 FILLER_0_22_93
*1241 FILLER_0_23_109
*1242 FILLER_0_23_113
*1243 FILLER_0_23_128
*1244 FILLER_0_23_147
*1245 FILLER_0_23_15
*1246 FILLER_0_23_153
*1247 FILLER_0_23_157
*1248 FILLER_0_23_165
*1249 FILLER_0_23_169
*1250 FILLER_0_23_188
*1251 FILLER_0_23_19
*1252 FILLER_0_23_200
*1253 FILLER_0_23_212
*1254 FILLER_0_23_225
*1255 FILLER_0_23_237
*1256 FILLER_0_23_249
*1257 FILLER_0_23_264
*1258 FILLER_0_23_276
*1259 FILLER_0_23_281
*1260 FILLER_0_23_285
*1261 FILLER_0_23_3
*1262 FILLER_0_23_305
*1263 FILLER_0_23_311
*1264 FILLER_0_23_318
*1265 FILLER_0_23_330
*1266 FILLER_0_23_337
*1267 FILLER_0_23_346
*1268 FILLER_0_23_350
*1269 FILLER_0_23_45
*1270 FILLER_0_23_50
*1271 FILLER_0_23_73
*1272 FILLER_0_23_85
*1273 FILLER_0_23_97
*1274 FILLER_0_24_101
*1275 FILLER_0_24_127
*1276 FILLER_0_24_139
*1277 FILLER_0_24_141
*1278 FILLER_0_24_147
*1279 FILLER_0_24_15
*1280 FILLER_0_24_164
*1281 FILLER_0_24_204
*1282 FILLER_0_24_22
*1283 FILLER_0_24_224
*1284 FILLER_0_24_232
*1285 FILLER_0_24_248
*1286 FILLER_0_24_264
*1287 FILLER_0_24_274
*1288 FILLER_0_24_285
*1289 FILLER_0_24_3
*1290 FILLER_0_24_301
*1291 FILLER_0_24_307
*1292 FILLER_0_24_329
*1293 FILLER_0_24_337
*1294 FILLER_0_24_345
*1295 FILLER_0_24_48
*1296 FILLER_0_24_63
*1297 FILLER_0_25_103
*1298 FILLER_0_25_111
*1299 FILLER_0_25_129
*1300 FILLER_0_25_150
*1301 FILLER_0_25_169
*1302 FILLER_0_25_181
*1303 FILLER_0_25_193
*1304 FILLER_0_25_206
*1305 FILLER_0_25_221
*1306 FILLER_0_25_225
*1307 FILLER_0_25_235
*1308 FILLER_0_25_247
*1309 FILLER_0_25_254
*1310 FILLER_0_25_270
*1311 FILLER_0_25_274
*1312 FILLER_0_25_281
*1313 FILLER_0_25_290
*1314 FILLER_0_25_298
*1315 FILLER_0_25_30
*1316 FILLER_0_25_314
*1317 FILLER_0_25_322
*1318 FILLER_0_25_331
*1319 FILLER_0_25_337
*1320 FILLER_0_25_34
*1321 FILLER_0_25_347
*1322 FILLER_0_25_48
*1323 FILLER_0_25_52
*1324 FILLER_0_25_57
*1325 FILLER_0_25_69
*1326 FILLER_0_25_80
*1327 FILLER_0_25_86
*1328 FILLER_0_26_109
*1329 FILLER_0_26_129
*1330 FILLER_0_26_139
*1331 FILLER_0_26_149
*1332 FILLER_0_26_15
*1333 FILLER_0_26_161
*1334 FILLER_0_26_167
*1335 FILLER_0_26_171
*1336 FILLER_0_26_203
*1337 FILLER_0_26_212
*1338 FILLER_0_26_234
*1339 FILLER_0_26_251
*1340 FILLER_0_26_256
*1341 FILLER_0_26_263
*1342 FILLER_0_26_27
*1343 FILLER_0_26_283
*1344 FILLER_0_26_291
*1345 FILLER_0_26_3
*1346 FILLER_0_26_307
*1347 FILLER_0_26_323
*1348 FILLER_0_26_331
*1349 FILLER_0_26_348
*1350 FILLER_0_26_42
*1351 FILLER_0_26_48
*1352 FILLER_0_26_67
*1353 FILLER_0_26_88
*1354 FILLER_0_26_92
*1355 FILLER_0_27_104
*1356 FILLER_0_27_108
*1357 FILLER_0_27_113
*1358 FILLER_0_27_144
*1359 FILLER_0_27_153
*1360 FILLER_0_27_165
*1361 FILLER_0_27_169
*1362 FILLER_0_27_181
*1363 FILLER_0_27_193
*1364 FILLER_0_27_205
*1365 FILLER_0_27_218
*1366 FILLER_0_27_231
*1367 FILLER_0_27_245
*1368 FILLER_0_27_279
*1369 FILLER_0_27_28
*1370 FILLER_0_27_281
*1371 FILLER_0_27_289
*1372 FILLER_0_27_301
*1373 FILLER_0_27_309
*1374 FILLER_0_27_316
*1375 FILLER_0_27_325
*1376 FILLER_0_27_337
*1377 FILLER_0_27_348
*1378 FILLER_0_27_45
*1379 FILLER_0_27_53
*1380 FILLER_0_27_73
*1381 FILLER_0_27_78
*1382 FILLER_0_28_105
*1383 FILLER_0_28_127
*1384 FILLER_0_28_139
*1385 FILLER_0_28_141
*1386 FILLER_0_28_15
*1387 FILLER_0_28_150
*1388 FILLER_0_28_167
*1389 FILLER_0_28_175
*1390 FILLER_0_28_185
*1391 FILLER_0_28_19
*1392 FILLER_0_28_193
*1393 FILLER_0_28_197
*1394 FILLER_0_28_209
*1395 FILLER_0_28_247
*1396 FILLER_0_28_25
*1397 FILLER_0_28_251
*1398 FILLER_0_28_261
*1399 FILLER_0_28_299
*1400 FILLER_0_28_3
*1401 FILLER_0_28_307
*1402 FILLER_0_28_316
*1403 FILLER_0_28_331
*1404 FILLER_0_28_348
*1405 FILLER_0_28_37
*1406 FILLER_0_28_45
*1407 FILLER_0_28_62
*1408 FILLER_0_28_71
*1409 FILLER_0_28_83
*1410 FILLER_0_29_105
*1411 FILLER_0_29_11
*1412 FILLER_0_29_122
*1413 FILLER_0_29_147
*1414 FILLER_0_29_159
*1415 FILLER_0_29_167
*1416 FILLER_0_29_169
*1417 FILLER_0_29_192
*1418 FILLER_0_29_223
*1419 FILLER_0_29_242
*1420 FILLER_0_29_254
*1421 FILLER_0_29_26
*1422 FILLER_0_29_266
*1423 FILLER_0_29_270
*1424 FILLER_0_29_278
*1425 FILLER_0_29_281
*1426 FILLER_0_29_292
*1427 FILLER_0_29_3
*1428 FILLER_0_29_304
*1429 FILLER_0_29_308
*1430 FILLER_0_29_323
*1431 FILLER_0_29_335
*1432 FILLER_0_29_337
*1433 FILLER_0_29_349
*1434 FILLER_0_29_50
*1435 FILLER_0_29_57
*1436 FILLER_0_29_63
*1437 FILLER_0_29_80
*1438 FILLER_0_2_109
*1439 FILLER_0_2_121
*1440 FILLER_0_2_133
*1441 FILLER_0_2_139
*1442 FILLER_0_2_141
*1443 FILLER_0_2_15
*1444 FILLER_0_2_153
*1445 FILLER_0_2_165
*1446 FILLER_0_2_177
*1447 FILLER_0_2_189
*1448 FILLER_0_2_195
*1449 FILLER_0_2_197
*1450 FILLER_0_2_209
*1451 FILLER_0_2_221
*1452 FILLER_0_2_233
*1453 FILLER_0_2_245
*1454 FILLER_0_2_251
*1455 FILLER_0_2_253
*1456 FILLER_0_2_265
*1457 FILLER_0_2_27
*1458 FILLER_0_2_277
*1459 FILLER_0_2_289
*1460 FILLER_0_2_29
*1461 FILLER_0_2_3
*1462 FILLER_0_2_301
*1463 FILLER_0_2_307
*1464 FILLER_0_2_309
*1465 FILLER_0_2_321
*1466 FILLER_0_2_333
*1467 FILLER_0_2_345
*1468 FILLER_0_2_41
*1469 FILLER_0_2_53
*1470 FILLER_0_2_65
*1471 FILLER_0_2_77
*1472 FILLER_0_2_83
*1473 FILLER_0_2_85
*1474 FILLER_0_2_97
*1475 FILLER_0_30_100
*1476 FILLER_0_30_131
*1477 FILLER_0_30_139
*1478 FILLER_0_30_141
*1479 FILLER_0_30_152
*1480 FILLER_0_30_172
*1481 FILLER_0_30_184
*1482 FILLER_0_30_197
*1483 FILLER_0_30_209
*1484 FILLER_0_30_221
*1485 FILLER_0_30_229
*1486 FILLER_0_30_233
*1487 FILLER_0_30_253
*1488 FILLER_0_30_258
*1489 FILLER_0_30_272
*1490 FILLER_0_30_280
*1491 FILLER_0_30_288
*1492 FILLER_0_30_3
*1493 FILLER_0_30_300
*1494 FILLER_0_30_309
*1495 FILLER_0_30_320
*1496 FILLER_0_30_330
*1497 FILLER_0_30_342
*1498 FILLER_0_30_350
*1499 FILLER_0_30_39
*1500 FILLER_0_30_56
*1501 FILLER_0_30_65
*1502 FILLER_0_30_73
*1503 FILLER_0_30_79
*1504 FILLER_0_30_83
*1505 FILLER_0_30_85
*1506 FILLER_0_31_106
*1507 FILLER_0_31_127
*1508 FILLER_0_31_14
*1509 FILLER_0_31_163
*1510 FILLER_0_31_167
*1511 FILLER_0_31_169
*1512 FILLER_0_31_195
*1513 FILLER_0_31_206
*1514 FILLER_0_31_214
*1515 FILLER_0_31_231
*1516 FILLER_0_31_239
*1517 FILLER_0_31_244
*1518 FILLER_0_31_25
*1519 FILLER_0_31_251
*1520 FILLER_0_31_263
*1521 FILLER_0_31_277
*1522 FILLER_0_31_281
*1523 FILLER_0_31_287
*1524 FILLER_0_31_292
*1525 FILLER_0_31_298
*1526 FILLER_0_31_3
*1527 FILLER_0_31_306
*1528 FILLER_0_31_318
*1529 FILLER_0_31_329
*1530 FILLER_0_31_335
*1531 FILLER_0_31_344
*1532 FILLER_0_31_350
*1533 FILLER_0_31_47
*1534 FILLER_0_31_57
*1535 FILLER_0_31_95
*1536 FILLER_0_32_100
*1537 FILLER_0_32_112
*1538 FILLER_0_32_119
*1539 FILLER_0_32_131
*1540 FILLER_0_32_139
*1541 FILLER_0_32_171
*1542 FILLER_0_32_183
*1543 FILLER_0_32_188
*1544 FILLER_0_32_192
*1545 FILLER_0_32_21
*1546 FILLER_0_32_213
*1547 FILLER_0_32_240
*1548 FILLER_0_32_244
*1549 FILLER_0_32_251
*1550 FILLER_0_32_256
*1551 FILLER_0_32_267
*1552 FILLER_0_32_27
*1553 FILLER_0_32_283
*1554 FILLER_0_32_29
*1555 FILLER_0_32_3
*1556 FILLER_0_32_301
*1557 FILLER_0_32_322
*1558 FILLER_0_32_339
*1559 FILLER_0_32_347
*1560 FILLER_0_32_41
*1561 FILLER_0_32_49
*1562 FILLER_0_32_58
*1563 FILLER_0_32_70
*1564 FILLER_0_32_74
*1565 FILLER_0_32_78
*1566 FILLER_0_32_85
*1567 FILLER_0_33_10
*1568 FILLER_0_33_101
*1569 FILLER_0_33_107
*1570 FILLER_0_33_111
*1571 FILLER_0_33_113
*1572 FILLER_0_33_140
*1573 FILLER_0_33_153
*1574 FILLER_0_33_161
*1575 FILLER_0_33_166
*1576 FILLER_0_33_169
*1577 FILLER_0_33_175
*1578 FILLER_0_33_179
*1579 FILLER_0_33_198
*1580 FILLER_0_33_210
*1581 FILLER_0_33_219
*1582 FILLER_0_33_22
*1583 FILLER_0_33_223
*1584 FILLER_0_33_225
*1585 FILLER_0_33_233
*1586 FILLER_0_33_257
*1587 FILLER_0_33_273
*1588 FILLER_0_33_279
*1589 FILLER_0_33_281
*1590 FILLER_0_33_292
*1591 FILLER_0_33_3
*1592 FILLER_0_33_320
*1593 FILLER_0_33_334
*1594 FILLER_0_33_344
*1595 FILLER_0_33_350
*1596 FILLER_0_33_40
*1597 FILLER_0_33_44
*1598 FILLER_0_33_54
*1599 FILLER_0_33_65
*1600 FILLER_0_33_76
*1601 FILLER_0_34_109
*1602 FILLER_0_34_121
*1603 FILLER_0_34_138
*1604 FILLER_0_34_141
*1605 FILLER_0_34_157
*1606 FILLER_0_34_163
*1607 FILLER_0_34_171
*1608 FILLER_0_34_179
*1609 FILLER_0_34_188
*1610 FILLER_0_34_19
*1611 FILLER_0_34_194
*1612 FILLER_0_34_214
*1613 FILLER_0_34_232
*1614 FILLER_0_34_239
*1615 FILLER_0_34_248
*1616 FILLER_0_34_253
*1617 FILLER_0_34_261
*1618 FILLER_0_34_271
*1619 FILLER_0_34_283
*1620 FILLER_0_34_289
*1621 FILLER_0_34_293
*1622 FILLER_0_34_305
*1623 FILLER_0_34_316
*1624 FILLER_0_34_322
*1625 FILLER_0_34_326
*1626 FILLER_0_34_34
*1627 FILLER_0_34_346
*1628 FILLER_0_34_350
*1629 FILLER_0_34_58
*1630 FILLER_0_34_77
*1631 FILLER_0_34_83
*1632 FILLER_0_34_85
*1633 FILLER_0_34_97
*1634 FILLER_0_35_108
*1635 FILLER_0_35_130
*1636 FILLER_0_35_140
*1637 FILLER_0_35_148
*1638 FILLER_0_35_15
*1639 FILLER_0_35_155
*1640 FILLER_0_35_161