*SPEF "ieee 1481-1999"
*DESIGN "tt_um_marno_factorize"
*DATE "11:11:11 Fri 11 11, 1111"
*VENDOR "OpenRCX"
*PROGRAM "Parallel Extraction"
*VERSION "1.0"
*DESIGN_FLOW "NAME_SCOPE LOCAL" "PIN_CAP NONE"
*DIVIDER /
*DELIMITER :
*BUS_DELIMITER []
*T_UNIT 1 NS
*C_UNIT 1 PF
*R_UNIT 1 OHM
*L_UNIT 1 HENRY

*NAME_MAP
*3 clk
*4 ena
*5 rst_n
*6 ui_in[0]
*7 ui_in[1]
*8 ui_in[2]
*9 ui_in[3]
*10 ui_in[4]
*11 ui_in[5]
*12 ui_in[6]
*13 ui_in[7]
*14 uio_in[0]
*15 uio_in[1]
*16 uio_in[2]
*17 uio_in[3]
*18 uio_in[4]
*19 uio_in[5]
*20 uio_in[6]
*21 uio_in[7]
*22 net10
*23 net11
*24 net12
*25 net13
*26 net14
*27 net15
*28 net16
*29 net17
*30 uio_out[0]
*31 uio_out[1]
*32 uio_out[2]
*33 uio_out[3]
*34 uio_out[4]
*35 uio_out[5]
*36 uio_out[6]
*37 uio_out[7]
*38 uo_out[0]
*39 uo_out[1]
*40 uo_out[2]
*41 uo_out[3]
*42 uo_out[4]
*43 uo_out[5]
*44 uo_out[6]
*45 uo_out[7]
*46 _0000_
*47 _0001_
*48 _0002_
*49 _0003_
*50 _0004_
*51 _0005_
*52 _0006_
*53 _0007_
*54 _0008_
*55 _0009_
*56 _0010_
*57 _0011_
*58 _0012_
*59 _0013_
*60 _0014_
*61 _0015_
*62 _0016_
*63 _0017_
*64 _0018_
*65 _0019_
*66 _0020_
*67 _0021_
*68 _0022_
*69 _0023_
*70 _0024_
*71 _0025_
*72 _0026_
*73 _0027_
*74 _0028_
*75 _0029_
*76 _0030_
*77 _0031_
*78 _0032_
*79 _0033_
*80 _0034_
*81 _0035_
*82 _0036_
*83 _0037_
*84 _0038_
*85 _0039_
*86 _0040_
*87 _0041_
*88 _0042_
*89 _0043_
*90 _0044_
*91 _0045_
*92 _0046_
*93 _0047_
*94 _0048_
*95 _0049_
*96 _0050_
*97 _0051_
*98 _0052_
*99 _0053_
*100 _0054_
*101 _0055_
*102 _0056_
*103 _0057_
*104 _0058_
*105 _0059_
*106 _0060_
*107 _0061_
*108 _0062_
*109 _0063_
*110 _0064_
*111 _0065_
*112 _0066_
*113 _0067_
*114 _0068_
*115 _0069_
*116 _0070_
*117 _0071_
*118 _0072_
*119 _0073_
*120 _0074_
*121 _0075_
*122 _0076_
*123 _0077_
*124 _0078_
*125 _0079_
*126 _0080_
*127 _0081_
*128 _0082_
*129 _0083_
*130 _0084_
*131 _0085_
*132 _0086_
*133 _0087_
*134 _0088_
*135 _0089_
*136 _0090_
*137 _0091_
*138 _0092_
*139 _0093_
*140 _0094_
*141 _0095_
*142 _0096_
*143 _0097_
*144 _0098_
*145 _0099_
*146 _0100_
*147 _0101_
*148 _0102_
*149 _0103_
*150 _0104_
*151 _0105_
*152 _0106_
*153 _0107_
*154 _0108_
*155 _0109_
*156 _0110_
*157 _0111_
*158 _0112_
*159 _0113_
*160 _0114_
*161 _0115_
*162 _0116_
*163 _0117_
*164 _0118_
*165 _0119_
*166 _0120_
*167 _0121_
*168 _0122_
*169 _0123_
*170 _0124_
*171 _0125_
*172 _0126_
*173 _0127_
*174 _0128_
*175 _0129_
*176 _0130_
*177 _0131_
*178 _0132_
*179 _0133_
*180 _0134_
*181 _0135_
*182 _0136_
*183 _0137_
*184 _0138_
*185 _0139_
*186 _0140_
*187 _0141_
*188 _0142_
*189 _0143_
*190 _0144_
*191 _0145_
*192 _0146_
*193 _0147_
*194 _0148_
*195 _0149_
*196 _0150_
*197 _0151_
*198 _0152_
*199 _0153_
*200 _0154_
*201 _0155_
*202 _0156_
*203 _0157_
*204 _0158_
*205 _0159_
*206 _0160_
*207 _0161_
*208 _0162_
*209 _0163_
*210 _0164_
*211 _0165_
*212 _0166_
*213 _0167_
*214 _0168_
*215 _0169_
*216 _0170_
*217 _0171_
*218 _0172_
*219 _0173_
*220 _0174_
*221 _0175_
*222 _0176_
*223 _0177_
*224 _0178_
*225 _0179_
*226 _0180_
*227 _0181_
*228 _0182_
*229 _0183_
*230 _0184_
*231 _0185_
*232 _0186_
*233 _0187_
*234 _0188_
*235 _0189_
*236 _0190_
*237 _0191_
*238 _0192_
*239 _0193_
*240 _0194_
*241 _0195_
*242 _0196_
*243 _0197_
*244 _0198_
*245 _0199_
*246 _0200_
*247 _0201_
*248 _0202_
*249 _0203_
*250 _0204_
*251 _0205_
*252 _0206_
*253 _0207_
*254 _0208_
*255 _0209_
*256 _0210_
*257 _0211_
*258 _0212_
*259 _0213_
*260 _0214_
*261 _0215_
*262 _0216_
*263 _0217_
*264 _0218_
*265 _0219_
*266 _0220_
*267 _0221_
*268 _0222_
*269 _0223_
*270 _0224_
*271 _0225_
*272 _0226_
*273 _0227_
*274 _0228_
*275 _0229_
*276 _0230_
*277 _0231_
*278 _0232_
*279 _0233_
*280 _0234_
*281 _0235_
*282 _0236_
*283 _0237_
*284 _0238_
*285 _0239_
*286 _0240_
*287 _0241_
*288 _0242_
*289 _0243_
*290 _0244_
*291 _0245_
*292 _0246_
*293 _0247_
*294 _0248_
*295 _0249_
*296 _0250_
*297 _0251_
*298 _0252_
*299 _0253_
*300 _0254_
*301 _0255_
*302 _0256_
*303 _0257_
*304 _0258_
*305 _0259_
*306 _0260_
*307 _0261_
*308 _0262_
*309 _0263_
*310 _0264_
*311 _0265_
*312 _0266_
*313 _0267_
*314 _0268_
*315 _0269_
*316 _0270_
*317 _0271_
*318 _0272_
*319 _0273_
*320 _0274_
*321 _0275_
*322 _0276_
*323 _0277_
*324 _0278_
*325 _0279_
*326 _0280_
*327 _0281_
*328 _0282_
*329 _0283_
*330 _0284_
*331 _0285_
*332 _0286_
*333 _0287_
*334 _0288_
*335 _0289_
*336 _0290_
*337 _0291_
*338 _0292_
*339 _0293_
*340 _0294_
*341 _0295_
*342 _0296_
*343 _0297_
*344 _0298_
*345 _0299_
*346 _0300_
*347 _0301_
*348 _0302_
*349 _0303_
*350 _0304_
*351 _0305_
*352 _0306_
*353 _0307_
*354 _0308_
*355 _0309_
*356 _0310_
*357 _0311_
*358 _0312_
*359 _0313_
*360 _0314_
*361 _0315_
*362 _0316_
*363 _0317_
*364 _0318_
*365 _0319_
*366 _0320_
*367 _0321_
*368 _0322_
*369 _0323_
*370 _0324_
*371 _0325_
*372 _0326_
*373 _0327_
*374 _0328_
*375 _0329_
*376 _0330_
*377 _0331_
*378 _0332_
*379 _0333_
*380 _0334_
*381 _0335_
*382 _0336_
*383 _0337_
*384 _0338_
*385 _0339_
*386 _0340_
*387 _0341_
*388 _0342_
*389 _0343_
*390 _0344_
*391 _0345_
*392 _0346_
*393 _0347_
*394 _0348_
*395 _0349_
*396 _0350_
*397 _0351_
*398 _0352_
*399 _0353_
*400 _0354_
*401 _0355_
*402 _0356_
*403 _0357_
*404 _0358_
*405 _0359_
*406 _0360_
*407 _0361_
*408 _0362_
*409 _0363_
*410 _0364_
*411 _0365_
*412 _0366_
*413 _0367_
*414 _0368_
*415 _0369_
*416 _0370_
*417 _0371_
*418 _0372_
*419 _0373_
*420 _0374_
*421 _0375_
*422 _0376_
*423 _0377_
*424 _0378_
*425 _0379_
*426 _0380_
*427 _0381_
*428 _0382_
*429 _0383_
*430 _0384_
*431 _0385_
*432 _0386_
*433 _0387_
*434 _0388_
*435 _0389_
*436 _0390_
*437 _0391_
*438 _0392_
*439 _0393_
*440 _0394_
*441 _0395_
*442 _0396_
*443 _0397_
*444 _0398_
*445 _0399_
*446 _0400_
*447 _0401_
*448 _0402_
*449 _0403_
*450 _0404_
*451 _0405_
*452 _0406_
*453 _0407_
*454 _0408_
*455 _0409_
*456 _0410_
*457 _0411_
*458 _0412_
*459 _0413_
*460 _0414_
*461 _0415_
*462 _0416_
*463 _0417_
*464 _0418_
*465 _0419_
*466 _0420_
*467 _0421_
*468 _0422_
*469 _0423_
*470 _0424_
*471 _0425_
*472 _0426_
*473 _0427_
*474 _0428_
*475 _0429_
*476 _0430_
*477 _0431_
*478 _0432_
*479 _0433_
*480 _0434_
*481 _0435_
*482 _0436_
*483 _0437_
*484 _0438_
*485 _0439_
*486 _0440_
*487 _0441_
*488 _0442_
*489 _0443_
*490 _0444_
*491 _0445_
*492 _0446_
*493 _0447_
*494 _0448_
*495 _0449_
*496 _0450_
*497 _0451_
*498 _0452_
*499 _0453_
*500 _0454_
*501 _0455_
*502 _0456_
*503 _0457_
*504 _0458_
*505 _0459_
*506 _0460_
*507 _0461_
*508 _0462_
*509 _0463_
*510 _0464_
*511 _0465_
*512 _0466_
*513 _0467_
*514 _0468_
*515 _0469_
*516 _0470_
*517 _0471_
*518 _0472_
*519 _0473_
*520 _0474_
*521 _0475_
*522 _0476_
*523 _0477_
*524 _0478_
*525 _0479_
*526 _0480_
*527 _0481_
*528 _0482_
*529 _0483_
*530 _0484_
*531 _0485_
*532 _0486_
*533 _0487_
*534 _0488_
*535 _0489_
*536 _0490_
*537 _0491_
*538 _0492_
*539 _0493_
*540 _0494_
*541 _0495_
*542 _0496_
*543 _0497_
*544 _0498_
*545 _0499_
*546 _0500_
*547 _0501_
*548 _0502_
*549 _0503_
*550 _0504_
*551 _0505_
*552 _0506_
*553 _0507_
*554 _0508_
*555 _0509_
*556 _0510_
*557 _0511_
*558 _0512_
*559 _0513_
*560 _0514_
*561 _0515_
*562 _0516_
*563 _0517_
*564 _0518_
*565 _0519_
*566 _0520_
*567 _0521_
*568 _0522_
*569 _0523_
*570 _0524_
*571 _0525_
*572 _0526_
*573 _0527_
*574 _0528_
*575 _0529_
*576 _0530_
*577 _0531_
*578 _0532_
*579 _0533_
*580 _0534_
*581 _0535_
*582 _0536_
*583 _0537_
*584 _0538_
*585 _0539_
*586 _0540_
*587 _0541_
*588 _0542_
*589 _0543_
*590 _0544_
*591 _0545_
*592 _0546_
*593 _0547_
*594 _0548_
*595 _0549_
*596 _0550_
*597 _0551_
*598 _0552_
*599 _0553_
*600 _0554_
*601 _0555_
*602 _0556_
*603 _0557_
*604 _0558_
*605 _0559_
*606 _0560_
*607 _0561_
*608 _0562_
*609 _0563_
*610 _0564_
*611 _0565_
*612 _0566_
*613 _0567_
*614 _0568_
*615 _0569_
*616 _0570_
*617 _0571_
*618 _0572_
*619 _0573_
*620 _0574_
*621 _0575_
*622 _0576_
*623 _0577_
*624 _0578_
*625 _0579_
*626 _0580_
*627 _0581_
*628 _0582_
*629 _0583_
*630 _0584_
*631 _0585_
*632 _0586_
*633 _0587_
*634 clknet_0_clk
*635 clknet_3_0__leaf_clk
*636 clknet_3_1__leaf_clk
*637 clknet_3_2__leaf_clk
*638 clknet_3_3__leaf_clk
*639 clknet_3_4__leaf_clk
*640 clknet_3_5__leaf_clk
*641 clknet_3_6__leaf_clk
*642 clknet_3_7__leaf_clk
*643 factorizer\.factors\[0\]
*644 factorizer\.factors\[10\]
*645 factorizer\.factors\[11\]
*646 factorizer\.factors\[12\]
*647 factorizer\.factors\[13\]
*648 factorizer\.factors\[14\]
*649 factorizer\.factors\[15\]
*650 factorizer\.factors\[16\]
*651 factorizer\.factors\[17\]
*652 factorizer\.factors\[1\]
*653 factorizer\.factors\[2\]
*654 factorizer\.factors\[3\]
*655 factorizer\.factors\[4\]
*656 factorizer\.factors\[5\]
*657 factorizer\.factors\[6\]
*658 factorizer\.factors\[7\]
*659 factorizer\.factors\[8\]
*660 factorizer\.factors\[9\]
*661 factorizer\.is_prime
*662 factorizer\.mod_eleven\[0\]
*663 factorizer\.mod_eleven\[1\]
*664 factorizer\.mod_eleven\[2\]
*665 factorizer\.mod_eleven\[3\]
*666 factorizer\.mod_eleven\[4\]
*667 factorizer\.mod_eleven\[5\]
*668 factorizer\.mod_five\[0\]
*669 factorizer\.mod_five\[1\]
*670 factorizer\.mod_five\[2\]
*671 factorizer\.mod_five\[3\]
*672 factorizer\.mod_five\[4\]
*673 factorizer\.mod_nine\[0\]
*674 factorizer\.mod_nine\[1\]
*675 factorizer\.mod_nine\[2\]
*676 factorizer\.mod_nine\[3\]
*677 factorizer\.mod_nine\[4\]
*678 factorizer\.mod_nineteen\[0\]
*679 factorizer\.mod_nineteen\[1\]
*680 factorizer\.mod_nineteen\[2\]
*681 factorizer\.mod_nineteen\[3\]
*682 factorizer\.mod_nineteen\[4\]
*683 factorizer\.mod_nineteen\[5\]
*684 factorizer\.mod_nineteen\[6\]
*685 factorizer\.mod_seven\[0\]
*686 factorizer\.mod_seven\[1\]
*687 factorizer\.mod_seven\[2\]
*688 factorizer\.mod_seven\[3\]
*689 factorizer\.mod_seven\[4\]
*690 factorizer\.mod_seventeen\[0\]
*691 factorizer\.mod_seventeen\[1\]
*692 factorizer\.mod_seventeen\[2\]
*693 factorizer\.mod_seventeen\[3\]
*694 factorizer\.mod_seventeen\[4\]
*695 factorizer\.mod_seventeen\[5\]
*696 factorizer\.mod_seventeen\[6\]
*697 factorizer\.mod_thirteen\[0\]
*698 factorizer\.mod_thirteen\[1\]
*699 factorizer\.mod_thirteen\[2\]
*700 factorizer\.mod_thirteen\[3\]
*701 factorizer\.mod_thirteen\[4\]
*702 factorizer\.mod_thirteen\[5\]
*703 factorizer\.mod_three\[0\]
*704 factorizer\.mod_three\[1\]
*705 factorizer\.mod_three\[2\]
*706 factorizer\.mod_three\[3\]
*707 net1
*708 net18
*709 net19
*710 net2
*711 net20
*712 net21
*713 net22
*714 net23
*715 net24
*716 net25
*717 net26
*718 net27
*719 net28
*720 net29
*721 net3
*722 net30
*723 net31
*724 net32
*725 net33
*726 net34
*727 net35
*728 net36
*729 net37
*730 net38
*731 net39
*732 net4
*733 net40
*734 net41
*735 net42
*736 net43
*737 net44
*738 net5
*739 net6
*740 net7
*741 net8
*742 net9
*743 new_digit\[0\]
*744 new_digit\[1\]
*745 new_digit\[2\]
*746 new_digit\[3\]
*747 old_input\[0\]
*748 old_input\[1\]
*749 old_input\[2\]
*750 old_input\[3\]
*751 old_input\[4\]
*752 old_input\[5\]
*753 old_input\[6\]
*754 old_input\[7\]
*755 second_counter\[0\]
*756 second_counter\[10\]
*757 second_counter\[11\]
*758 second_counter\[12\]
*759 second_counter\[13\]
*760 second_counter\[14\]
*761 second_counter\[15\]
*762 second_counter\[16\]
*763 second_counter\[17\]
*764 second_counter\[18\]
*765 second_counter\[19\]
*766 second_counter\[1\]
*767 second_counter\[20\]
*768 second_counter\[21\]
*769 second_counter\[22\]
*770 second_counter\[23\]
*771 second_counter\[2\]
*772 second_counter\[3\]
*773 second_counter\[4\]
*774 second_counter\[5\]
*775 second_counter\[6\]
*776 second_counter\[7\]
*777 second_counter\[8\]
*778 second_counter\[9\]
*779 seg7decoder\.counter\[0\]
*780 seg7decoder\.counter\[1\]
*781 seg7decoder\.counter\[2\]
*782 seg7decoder\.counter\[3\]
*783 FILLER_0_0_109
*784 FILLER_0_0_113
*785 FILLER_0_0_125
*786 FILLER_0_0_137
*787 FILLER_0_0_141
*788 FILLER_0_0_15
*789 FILLER_0_0_153
*790 FILLER_0_0_165
*791 FILLER_0_0_169
*792 FILLER_0_0_181
*793 FILLER_0_0_193
*794 FILLER_0_0_197
*795 FILLER_0_0_209
*796 FILLER_0_0_221
*797 FILLER_0_0_225
*798 FILLER_0_0_237
*799 FILLER_0_0_249
*800 FILLER_0_0_253
*801 FILLER_0_0_265
*802 FILLER_0_0_27
*803 FILLER_0_0_277
*804 FILLER_0_0_281
*805 FILLER_0_0_29
*806 FILLER_0_0_293
*807 FILLER_0_0_3
*808 FILLER_0_0_305
*809 FILLER_0_0_309
*810 FILLER_0_0_321
*811 FILLER_0_0_333
*812 FILLER_0_0_337
*813 FILLER_0_0_349
*814 FILLER_0_0_41
*815 FILLER_0_0_53
*816 FILLER_0_0_57
*817 FILLER_0_0_69
*818 FILLER_0_0_81
*819 FILLER_0_0_85
*820 FILLER_0_0_97
*821 FILLER_0_10_109
*822 FILLER_0_10_121
*823 FILLER_0_10_128
*824 FILLER_0_10_141
*825 FILLER_0_10_15
*826 FILLER_0_10_153
*827 FILLER_0_10_165
*828 FILLER_0_10_177
*829 FILLER_0_10_189
*830 FILLER_0_10_195
*831 FILLER_0_10_197
*832 FILLER_0_10_216
*833 FILLER_0_10_228
*834 FILLER_0_10_246
*835 FILLER_0_10_27
*836 FILLER_0_10_272
*837 FILLER_0_10_29
*838 FILLER_0_10_298
*839 FILLER_0_10_3
*840 FILLER_0_10_306
*841 FILLER_0_10_316
*842 FILLER_0_10_328
*843 FILLER_0_10_340
*844 FILLER_0_10_348
*845 FILLER_0_10_41
*846 FILLER_0_10_53
*847 FILLER_0_10_65
*848 FILLER_0_10_77
*849 FILLER_0_10_83
*850 FILLER_0_10_85
*851 FILLER_0_10_97
*852 FILLER_0_11_105
*853 FILLER_0_11_111
*854 FILLER_0_11_113
*855 FILLER_0_11_135
*856 FILLER_0_11_15
*857 FILLER_0_11_169
*858 FILLER_0_11_202
*859 FILLER_0_11_218
*860 FILLER_0_11_225
*861 FILLER_0_11_231
*862 FILLER_0_11_243
*863 FILLER_0_11_254
*864 FILLER_0_11_27
*865 FILLER_0_11_271
*866 FILLER_0_11_281
*867 FILLER_0_11_293
*868 FILLER_0_11_299
*869 FILLER_0_11_3
*870 FILLER_0_11_316
*871 FILLER_0_11_337
*872 FILLER_0_11_349
*873 FILLER_0_11_39
*874 FILLER_0_11_51
*875 FILLER_0_11_55
*876 FILLER_0_11_57
*877 FILLER_0_11_69
*878 FILLER_0_11_81
*879 FILLER_0_11_93
*880 FILLER_0_12_109
*881 FILLER_0_12_121
*882 FILLER_0_12_133
*883 FILLER_0_12_139
*884 FILLER_0_12_141
*885 FILLER_0_12_15
*886 FILLER_0_12_168
*887 FILLER_0_12_180
*888 FILLER_0_12_186
*889 FILLER_0_12_190
*890 FILLER_0_12_197
*891 FILLER_0_12_205
*892 FILLER_0_12_219
*893 FILLER_0_12_241
*894 FILLER_0_12_248
*895 FILLER_0_12_267
*896 FILLER_0_12_27
*897 FILLER_0_12_284
*898 FILLER_0_12_29
*899 FILLER_0_12_290
*900 FILLER_0_12_299
*901 FILLER_0_12_3
*902 FILLER_0_12_307
*903 FILLER_0_12_313
*904 FILLER_0_12_320
*905 FILLER_0_12_325
*906 FILLER_0_12_337
*907 FILLER_0_12_349
*908 FILLER_0_12_41
*909 FILLER_0_12_53
*910 FILLER_0_12_65
*911 FILLER_0_12_77
*912 FILLER_0_12_83
*913 FILLER_0_12_85
*914 FILLER_0_12_97
*915 FILLER_0_13_103
*916 FILLER_0_13_111
*917 FILLER_0_13_113
*918 FILLER_0_13_133
*919 FILLER_0_13_15
*920 FILLER_0_13_166
*921 FILLER_0_13_169
*922 FILLER_0_13_179
*923 FILLER_0_13_203
*924 FILLER_0_13_218
*925 FILLER_0_13_225
*926 FILLER_0_13_237
*927 FILLER_0_13_268
*928 FILLER_0_13_27
*929 FILLER_0_13_279
*930 FILLER_0_13_3
*931 FILLER_0_13_301
*932 FILLER_0_13_306
*933 FILLER_0_13_318
*934 FILLER_0_13_337
*935 FILLER_0_13_348
*936 FILLER_0_13_39
*937 FILLER_0_13_51
*938 FILLER_0_13_55
*939 FILLER_0_13_57
*940 FILLER_0_13_69
*941 FILLER_0_13_91
*942 FILLER_0_14_110
*943 FILLER_0_14_129
*944 FILLER_0_14_15
*945 FILLER_0_14_157
*946 FILLER_0_14_166
*947 FILLER_0_14_172
*948 FILLER_0_14_179
*949 FILLER_0_14_191
*950 FILLER_0_14_195
*951 FILLER_0_14_197
*952 FILLER_0_14_203
*953 FILLER_0_14_220
*954 FILLER_0_14_238
*955 FILLER_0_14_246
*956 FILLER_0_14_253
*957 FILLER_0_14_261
*958 FILLER_0_14_27
*959 FILLER_0_14_272
*960 FILLER_0_14_281
*961 FILLER_0_14_29
*962 FILLER_0_14_293
*963 FILLER_0_14_3
*964 FILLER_0_14_303
*965 FILLER_0_14_307
*966 FILLER_0_14_309
*967 FILLER_0_14_321
*968 FILLER_0_14_333
*969 FILLER_0_14_346
*970 FILLER_0_14_350
*971 FILLER_0_14_46
*972 FILLER_0_14_52
*973 FILLER_0_14_64
*974 FILLER_0_14_76
*975 FILLER_0_14_85
*976 FILLER_0_14_93
*977 FILLER_0_15_113
*978 FILLER_0_15_119
*979 FILLER_0_15_124
*980 FILLER_0_15_139
*981 FILLER_0_15_144
*982 FILLER_0_15_15
*983 FILLER_0_15_159
*984 FILLER_0_15_164
*985 FILLER_0_15_169
*986 FILLER_0_15_175
*987 FILLER_0_15_183
*988 FILLER_0_15_191
*989 FILLER_0_15_203
*990 FILLER_0_15_215
*991 FILLER_0_15_223
*992 FILLER_0_15_225
*993 FILLER_0_15_229
*994 FILLER_0_15_23
*995 FILLER_0_15_233
*996 FILLER_0_15_245
*997 FILLER_0_15_249
*998 FILLER_0_15_261
*999 FILLER_0_15_279
*1000 FILLER_0_15_287
*1001 FILLER_0_15_291
*1002 FILLER_0_15_3
*1003 FILLER_0_15_327
*1004 FILLER_0_15_335
*1005 FILLER_0_15_337
*1006 FILLER_0_15_41
*1007 FILLER_0_15_53
*1008 FILLER_0_15_73
*1009 FILLER_0_15_91
*1010 FILLER_0_15_95
*1011 FILLER_0_16_115
*1012 FILLER_0_16_137
*1013 FILLER_0_16_141
*1014 FILLER_0_16_153
*1015 FILLER_0_16_167
*1016 FILLER_0_16_175
*1017 FILLER_0_16_182
*1018 FILLER_0_16_190
*1019 FILLER_0_16_204
*1020 FILLER_0_16_211
*1021 FILLER_0_16_221
*1022 FILLER_0_16_225
*1023 FILLER_0_16_241
*1024 FILLER_0_16_249
*1025 FILLER_0_16_259
*1026 FILLER_0_16_27
*1027 FILLER_0_16_271
*1028 FILLER_0_16_285
*1029 FILLER_0_16_297
*1030 FILLER_0_16_3
*1031 FILLER_0_16_305
*1032 FILLER_0_16_309
*1033 FILLER_0_16_313
*1034 FILLER_0_16_317
*1035 FILLER_0_16_329
*1036 FILLER_0_16_348
*1037 FILLER_0_16_51
*1038 FILLER_0_16_71
*1039 FILLER_0_16_83
*1040 FILLER_0_16_85
*1041 FILLER_0_17_107
*1042 FILLER_0_17_111
*1043 FILLER_0_17_113
*1044 FILLER_0_17_125
*1045 FILLER_0_17_15
*1046 FILLER_0_17_151
*1047 FILLER_0_17_157
*1048 FILLER_0_17_169
*1049 FILLER_0_17_181
*1050 FILLER_0_17_187
*1051 FILLER_0_17_200
*1052 FILLER_0_17_21
*1053 FILLER_0_17_211
*1054 FILLER_0_17_223
*1055 FILLER_0_17_225
*1056 FILLER_0_17_237
*1057 FILLER_0_17_249
*1058 FILLER_0_17_266
*1059 FILLER_0_17_278
*1060 FILLER_0_17_288
*1061 FILLER_0_17_298
*1062 FILLER_0_17_3
*1063 FILLER_0_17_306
*1064 FILLER_0_17_33
*1065 FILLER_0_17_334
*1066 FILLER_0_17_337
*1067 FILLER_0_17_346
*1068 FILLER_0_17_350
*1069 FILLER_0_17_37
*1070 FILLER_0_17_41
*1071 FILLER_0_17_80
*1072 FILLER_0_17_92
*1073 FILLER_0_18_120
*1074 FILLER_0_18_124
*1075 FILLER_0_18_136
*1076 FILLER_0_18_150
*1077 FILLER_0_18_157
*1078 FILLER_0_18_161
*1079 FILLER_0_18_170
*1080 FILLER_0_18_180
*1081 FILLER_0_18_19
*1082 FILLER_0_18_191
*1083 FILLER_0_18_195
*1084 FILLER_0_18_197
*1085 FILLER_0_18_211
*1086 FILLER_0_18_225
*1087 FILLER_0_18_229
*1088 FILLER_0_18_237
*1089 FILLER_0_18_249
*1090 FILLER_0_18_259
*1091 FILLER_0_18_269
*1092 FILLER_0_18_289
*1093 FILLER_0_18_29
*1094 FILLER_0_18_297
*1095 FILLER_0_18_305
*1096 FILLER_0_18_309
*1097 FILLER_0_18_315
*1098 FILLER_0_18_324
*1099 FILLER_0_18_41
*1100 FILLER_0_18_50
*1101 FILLER_0_18_74
*1102 FILLER_0_18_82
*1103 FILLER_0_19_103
*1104 FILLER_0_19_107
*1105 FILLER_0_19_111
*1106 FILLER_0_19_113
*1107 FILLER_0_19_125
*1108 FILLER_0_19_136
*1109 FILLER_0_19_148
*1110 FILLER_0_19_15
*1111 FILLER_0_19_154
*1112 FILLER_0_19_165
*1113 FILLER_0_19_169
*1114 FILLER_0_19_181
*1115 FILLER_0_19_194
*1116 FILLER_0_19_208
*1117 FILLER_0_19_223
*1118 FILLER_0_19_225
*1119 FILLER_0_19_237
*1120 FILLER_0_19_242
*1121 FILLER_0_19_253
*1122 FILLER_0_19_265
*1123 FILLER_0_19_277
*1124 FILLER_0_19_29
*1125 FILLER_0_19_294
*1126 FILLER_0_19_3
*1127 FILLER_0_19_329
*1128 FILLER_0_19_335
*1129 FILLER_0_19_337
*1130 FILLER_0_19_34
*1131 FILLER_0_19_349
*1132 FILLER_0_19_46
*1133 FILLER_0_19_54
*1134 FILLER_0_19_57
*1135 FILLER_0_19_79
*1136 FILLER_0_19_97
*1137 FILLER_0_1_105
*1138 FILLER_0_1_111
*1139 FILLER_0_1_113
*1140 FILLER_0_1_125
*1141 FILLER_0_1_137
*1142 FILLER_0_1_149
*1143 FILLER_0_1_15
*1144 FILLER_0_1_161
*1145 FILLER_0_1_167
*1146 FILLER_0_1_169
*1147 FILLER_0_1_181
*1148 FILLER_0_1_193
*1149 FILLER_0_1_205
*1150 FILLER_0_1_217
*1151 FILLER_0_1_223
*1152 FILLER_0_1_225
*1153 FILLER_0_1_237
*1154 FILLER_0_1_249
*1155 FILLER_0_1_261
*1156 FILLER_0_1_27
*1157 FILLER_0_1_273
*1158 FILLER_0_1_279
*1159 FILLER_0_1_281
*1160 FILLER_0_1_293
*1161 FILLER_0_1_3
*1162 FILLER_0_1_305
*1163 FILLER_0_1_317
*1164 FILLER_0_1_329
*1165 FILLER_0_1_335
*1166 FILLER_0_1_337
*1167 FILLER_0_1_349
*1168 FILLER_0_1_39
*1169 FILLER_0_1_51
*1170 FILLER_0_1_55
*1171 FILLER_0_1_57
*1172 FILLER_0_1_69
*1173 FILLER_0_1_81
*1174 FILLER_0_1_93
*1175 FILLER_0_20_111
*1176 FILLER_0_20_118
*1177 FILLER_0_20_155
*1178 FILLER_0_20_161
*1179 FILLER_0_20_172
*1180 FILLER_0_20_184
*1181 FILLER_0_20_197
*1182 FILLER_0_20_209
*1183 FILLER_0_20_221
*1184 FILLER_0_20_229
*1185 FILLER_0_20_241
*1186 FILLER_0_20_249
*1187 FILLER_0_20_253
*1188 FILLER_0_20_26
*1189 FILLER_0_20_261
*1190 FILLER_0_20_271
*1191 FILLER_0_20_283
*1192 FILLER_0_20_295
*1193 FILLER_0_20_3
*1194 FILLER_0_20_307
*1195 FILLER_0_20_309
*1196 FILLER_0_20_317
*1197 FILLER_0_20_327
*1198 FILLER_0_20_331
*1199 FILLER_0_20_63
*1200 FILLER_0_20_75
*1201 FILLER_0_20_83
*1202 FILLER_0_20_85
*1203 FILLER_0_20_97
*1204 FILLER_0_21_104
*1205 FILLER_0_21_132
*1206 FILLER_0_21_144
*1207 FILLER_0_21_149
*1208 FILLER_0_21_161
*1209 FILLER_0_21_167
*1210 FILLER_0_21_169
*1211 FILLER_0_21_184
*1212 FILLER_0_21_196
*1213 FILLER_0_21_205
*1214 FILLER_0_21_21
*1215 FILLER_0_21_217
*1216 FILLER_0_21_223
*1217 FILLER_0_21_238
*1218 FILLER_0_21_248
*1219 FILLER_0_21_260
*1220 FILLER_0_21_275
*1221 FILLER_0_21_279
*1222 FILLER_0_21_281
*1223 FILLER_0_21_29
*1224 FILLER_0_21_3
*1225 FILLER_0_21_307
*1226 FILLER_0_21_319
*1227 FILLER_0_21_323
*1228 FILLER_0_21_334
*1229 FILLER_0_21_34
*1230 FILLER_0_21_341
*1231 FILLER_0_21_349
*1232 FILLER_0_21_43
*1233 FILLER_0_21_57
*1234 FILLER_0_21_66
*1235 FILLER_0_21_86
*1236 FILLER_0_22_108
*1237 FILLER_0_22_11
*1238 FILLER_0_22_116
*1239 FILLER_0_22_134
*1240 FILLER_0_22_157
*1241 FILLER_0_22_164
*1242 FILLER_0_22_172
*1243 FILLER_0_22_176
*1244 FILLER_0_22_187
*1245 FILLER_0_22_210
*1246 FILLER_0_22_225
*1247 FILLER_0_22_23
*1248 FILLER_0_22_236
*1249 FILLER_0_22_240
*1250 FILLER_0_22_251
*1251 FILLER_0_22_253
*1252 FILLER_0_22_261
*1253 FILLER_0_22_27
*1254 FILLER_0_22_271
*1255 FILLER_0_22_275
*1256 FILLER_0_22_283
*1257 FILLER_0_22_29
*1258 FILLER_0_22_295
*1259 FILLER_0_22_3
*1260 FILLER_0_22_307
*1261 FILLER_0_22_309
*1262 FILLER_0_22_329
*1263 FILLER_0_22_341
*1264 FILLER_0_22_349
*1265 FILLER_0_22_41
*1266 FILLER_0_22_48
*1267 FILLER_0_22_56
*1268 FILLER_0_22_65
*1269 FILLER_0_22_7
*1270 FILLER_0_22_74
*1271 FILLER_0_22_82
*1272 FILLER_0_22_85
*1273 FILLER_0_22_97
*1274 FILLER_0_23_111
*1275 FILLER_0_23_118
*1276 FILLER_0_23_132
*1277 FILLER_0_23_144
*1278 FILLER_0_23_151
*1279 FILLER_0_23_167
*1280 FILLER_0_23_169
*1281 FILLER_0_23_175
*1282 FILLER_0_23_196
*1283 FILLER_0_23_204
*1284 FILLER_0_23_218
*1285 FILLER_0_23_225
*1286 FILLER_0_23_237
*1287 FILLER_0_23_249
*1288 FILLER_0_23_263
*1289 FILLER_0_23_273
*1290 FILLER_0_23_277
*1291 FILLER_0_23_281
*1292 FILLER_0_23_289
*1293 FILLER_0_23_3
*1294 FILLER_0_23_301
*1295 FILLER_0_23_309
*1296 FILLER_0_23_320
*1297 FILLER_0_23_332
*1298 FILLER_0_23_337
*1299 FILLER_0_23_34
*1300 FILLER_0_23_349
*1301 FILLER_0_23_57
*1302 FILLER_0_23_74
*1303 FILLER_0_23_96
*1304 FILLER_0_24_109
*1305 FILLER_0_24_11
*1306 FILLER_0_24_121
*1307 FILLER_0_24_130
*1308 FILLER_0_24_138
*1309 FILLER_0_24_157
*1310 FILLER_0_24_177
*1311 FILLER_0_24_197
*1312 FILLER_0_24_221
*1313 FILLER_0_24_229
*1314 FILLER_0_24_249
*1315 FILLER_0_24_25
*1316 FILLER_0_24_258
*1317 FILLER_0_24_284
*1318 FILLER_0_24_29
*1319 FILLER_0_24_292
*1320 FILLER_0_24_3
*1321 FILLER_0_24_304
*1322 FILLER_0_24_309
*1323 FILLER_0_24_323
*1324 FILLER_0_24_348
*1325 FILLER_0_24_35
*1326 FILLER_0_24_47
*1327 FILLER_0_24_64
*1328 FILLER_0_24_73
*1329 FILLER_0_24_81
*1330 FILLER_0_25_111
*1331 FILLER_0_25_129
*1332 FILLER_0_25_142
*1333 FILLER_0_25_150
*1334 FILLER_0_25_162
*1335 FILLER_0_25_172
*1336 FILLER_0_25_184
*1337 FILLER_0_25_196
*1338 FILLER_0_25_208
*1339 FILLER_0_25_219
*1340 FILLER_0_25_223
*1341 FILLER_0_25_225
*1342 FILLER_0_25_237
*1343 FILLER_0_25_247
*1344 FILLER_0_25_264
*1345 FILLER_0_25_27
*1346 FILLER_0_25_274
*1347 FILLER_0_25_287
*1348 FILLER_0_25_293
*1349 FILLER_0_25_300
*1350 FILLER_0_25_304
*1351 FILLER_0_25_312
*1352 FILLER_0_25_324
*1353 FILLER_0_25_331
*1354 FILLER_0_25_335
*1355 FILLER_0_25_337
*1356 FILLER_0_25_34
*1357 FILLER_0_25_349
*1358 FILLER_0_25_45
*1359 FILLER_0_25_51
*1360 FILLER_0_25_55
*1361 FILLER_0_25_57
*1362 FILLER_0_25_65
*1363 FILLER_0_25_83
*1364 FILLER_0_25_93
*1365 FILLER_0_25_99
*1366 FILLER_0_26_105
*1367 FILLER_0_26_109
*1368 FILLER_0_26_126
*1369 FILLER_0_26_133
*1370 FILLER_0_26_139
*1371 FILLER_0_26_141
*1372 FILLER_0_26_15
*1373 FILLER_0_26_156
*1374 FILLER_0_26_168
*1375 FILLER_0_26_177
*1376 FILLER_0_26_195
*1377 FILLER_0_26_203
*1378 FILLER_0_26_209
*1379 FILLER_0_26_21
*1380 FILLER_0_26_227
*1381 FILLER_0_26_238
*1382 FILLER_0_26_246
*1383 FILLER_0_26_251
*1384 FILLER_0_26_256
*1385 FILLER_0_26_264
*1386 FILLER_0_26_270
*1387 FILLER_0_26_274
*1388 FILLER_0_26_299
*1389 FILLER_0_26_3
*1390 FILLER_0_26_309
*1391 FILLER_0_26_321
*1392 FILLER_0_26_329
*1393 FILLER_0_26_348
*1394 FILLER_0_26_53
*1395 FILLER_0_26_65
*1396 FILLER_0_26_74
*1397 FILLER_0_26_82
*1398 FILLER_0_26_85
*1399 FILLER_0_27_109
*1400 FILLER_0_27_116
*1401 FILLER_0_27_140
*1402 FILLER_0_27_15
*1403 FILLER_0_27_157
*1404 FILLER_0_27_164
*1405 FILLER_0_27_173
*1406 FILLER_0_27_177
*1407 FILLER_0_27_187
*1408 FILLER_0_27_19
*1409 FILLER_0_27_199
*1410 FILLER_0_27_205
*1411 FILLER_0_27_217
*1412 FILLER_0_27_223
*1413 FILLER_0_27_225
*1414 FILLER_0_27_233
*1415 FILLER_0_27_239
*1416 FILLER_0_27_247
*1417 FILLER_0_27_3
*1418 FILLER_0_27_326
*1419 FILLER_0_27_33
*1420 FILLER_0_27_332
*1421 FILLER_0_27_337
*1422 FILLER_0_27_341
*1423 FILLER_0_27_345
*1424 FILLER_0_27_40
*1425 FILLER_0_27_52
*1426 FILLER_0_27_60
*1427 FILLER_0_27_87
*1428 FILLER_0_28_126
*1429 FILLER_0_28_130
*1430 FILLER_0_28_139
*1431 FILLER_0_28_141
*1432 FILLER_0_28_153
*1433 FILLER_0_28_176
*1434 FILLER_0_28_180
*1435 FILLER_0_28_194
*1436 FILLER_0_28_204
*1437 FILLER_0_28_208
*1438 FILLER_0_28_212
*1439 FILLER_0_28_221
*1440 FILLER_0_28_240
*1441 FILLER_0_28_249
*1442 FILLER_0_28_27
*1443 FILLER_0_28_273
*1444 FILLER_0_28_297
*1445 FILLER_0_28_307
*1446 FILLER_0_28_317
*1447 FILLER_0_28_32
*1448 FILLER_0_28_323
*1449 FILLER_0_28_329
*1450 FILLER_0_28_349
*1451 FILLER_0_28_49
*1452 FILLER_0_28_79
*1453 FILLER_0_28_83
*1454 FILLER_0_29_10
*1455 FILLER_0_29_110
*1456 FILLER_0_29_113
*1457 FILLER_0_29_121
*1458 FILLER_0_29_144
*1459 FILLER_0_29_159
*1460 FILLER_0_29_167
*1461 FILLER_0_29_169
*1462 FILLER_0_29_18
*1463 FILLER_0_29_181
*1464 FILLER_0_29_205
*1465 FILLER_0_29_217
*1466 FILLER_0_29_223
*1467 FILLER_0_29_225
*1468 FILLER_0_29_237
*1469 FILLER_0_29_24
*1470 FILLER_0_29_244
*1471 FILLER_0_29_258
*1472 FILLER_0_29_266
*1473 FILLER_0_29_278
*1474 FILLER_0_29_287
*1475 FILLER_0_29_298
*1476 FILLER_0_29_3
*1477 FILLER_0_29_310
*1478 FILLER_0_29_316
*1479 FILLER_0_29_322
*1480 FILLER_0_29_334
*1481 FILLER_0_29_337
*1482 FILLER_0_29_349
*1483 FILLER_0_29_36
*1484 FILLER_0_29_44
*1485 FILLER_0_29_78
*1486 FILLER_0_29_82
*1487 FILLER_0_2_109
*1488 FILLER_0_2_121
*1489 FILLER_0_2_133
*1490 FILLER_0_2_139
*1491 FILLER_0_2_141
*1492 FILLER_0_2_15
*1493 FILLER_0_2_153
*1494 FILLER_0_2_165
*1495 FILLER_0_2_177
*1496 FILLER_0_2_189
*1497 FILLER_0_2_195
*1498 FILLER_0_2_197
*1499 FILLER_0_2_209
*1500 FILLER_0_2_221
*1501 FILLER_0_2_233
*1502 FILLER_0_2_245
*1503 FILLER_0_2_251
*1504 FILLER_0_2_253
*1505 FILLER_0_2_265
*1506 FILLER_0_2_27
*1507 FILLER_0_2_277
*1508 FILLER_0_2_289
*1509 FILLER_0_2_29
*1510 FILLER_0_2_3
*1511 FILLER_0_2_301
*1512 FILLER_0_2_307
*1513 FILLER_0_2_309
*1514 FILLER_0_2_321
*1515 FILLER_0_2_333
*1516 FILLER_0_2_345
*1517 FILLER_0_2_41
*1518 FILLER_0_2_53
*1519 FILLER_0_2_65
*1520 FILLER_0_2_77
*1521 FILLER_0_2_83
*1522 FILLER_0_2_85
*1523 FILLER_0_2_97
*1524 FILLER_0_30_117
*1525 FILLER_0_30_129
*1526 FILLER_0_30_137
*1527 FILLER_0_30_141
*1528 FILLER_0_30_155
*1529 FILLER_0_30_176
*1530 FILLER_0_30_193
*1531 FILLER_0_30_197
*1532 FILLER_0_30_201
*1533 FILLER_0_30_218
*1534 FILLER_0_30_234
*1535 FILLER_0_30_246
*1536 FILLER_0_30_253
*1537 FILLER_0_30_26
*1538 FILLER_0_30_262
*1539 FILLER_0_30_270
*1540 FILLER_0_30_278
*1541 FILLER_0_30_286
*1542 FILLER_0_30_295
*1543 FILLER_0_30_299
*1544 FILLER_0_30_305
*1545 FILLER_0_30_315
*1546 FILLER_0_30_319
*1547 FILLER_0_30_346
*1548 FILLER_0_30_350
*1549 FILLER_0_30_41
*1550 FILLER_0_30_59
*1551 FILLER_0_30_63
*1552 FILLER_0_30_80
*1553 FILLER_0_30_85
*1554 FILLER_0_30_97
*1555 FILLER_0_31_104
*1556 FILLER_0_31_116
*1557 FILLER_0_31_12
*1558 FILLER_0_31_120
*1559 FILLER_0_31_137
*1560 FILLER_0_31_152
*1561 FILLER_0_31_167
*1562 FILLER_0_31_169
*1563 FILLER_0_31_181
*1564 FILLER_0_31_201
*1565 FILLER_0_31_213
*1566 FILLER_0_31_222
*1567 FILLER_0_31_228
*1568 FILLER_0_31_23
*1569 FILLER_0_31_246
*1570 FILLER_0_31_254
*1571 FILLER_0_31_258
*1572 FILLER_0_31_273
*1573 FILLER_0_31_279
*1574 FILLER_0_31_281
*1575 FILLER_0_31_285
*1576 FILLER_0_31_293
*1577 FILLER_0_31_3
*1578 FILLER_0_31_305
*1579 FILLER_0_31_333
*1580 FILLER_0_31_337
*1581 FILLER_0_31_343
*1582 FILLER_0_31_347
*1583 FILLER_0_31_35
*1584 FILLER_0_31_41
*1585 FILLER_0_31_45
*1586 FILLER_0_31_53
*1587 FILLER_0_31_57
*1588 FILLER_0_31_65
*1589 FILLER_0_31_70
*1590 FILLER_0_31_82
*1591 FILLER_0_32_100
*1592 FILLER_0_32_130
*1593 FILLER_0_32_136
*1594 FILLER_0_32_141
*1595 FILLER_0_32_152
*1596 FILLER_0_32_164
*1597 FILLER_0_32_177
*1598 FILLER_0_32_189
*1599 FILLER_0_32_195
*1600 FILLER_0_32_21
*1601 FILLER_0_32_213
*1602 FILLER_0_32_230
*1603 FILLER_0_32_244
*1604 FILLER_0_32_253
*1605 FILLER_0_32_268
*1606 FILLER_0_32_279
*1607 FILLER_0_32_289
*1608 FILLER_0_32_3
*1609 FILLER_0_32_315
*1610 FILLER_0_32_333
*1611 FILLER_0_32_350
*1612 FILLER_0_32_39
*1613 FILLER_0_32_59
*1614 FILLER_0_32_82
*1615 FILLER_0_32_85
*1616 FILLER_0_32_93
*1617 FILLER_0_33_100
*1618 FILLER_0_33_113
*1619 FILLER_0_33_119
*1620 FILLER_0_33_128
*1621 FILLER_0_33_13
*1622 FILLER_0_33_149
*1623 FILLER_0_33_161
*1624 FILLER_0_33_167
*1625 FILLER_0_33_173
*1626 FILLER_0_33_177
*1627 FILLER_0_33_198
*1628 FILLER_0_33_210
*1629 FILLER_0_33_218
*1630 FILLER_0_33_222
*1631 FILLER_0_33_225
*1632 FILLER_0_33_229
*1633 FILLER_0_33_235
*1634 FILLER_0_33_25
*1635 FILLER_0_33_250
*1636 FILLER_0_33_258
*1637 FILLER_0_33_269
*1638 FILLER_0_33_277
*1639 FILLER_0_33_281
*1640 FILLER_0_33_294
*1641 FILLER_0_33_3
*1642 FILLER_0_33_302
*1643 FILLER_0_33_324
*1644 FILLER_0_33_36
*1645 FILLER_0_33_48
*1646 FILLER_0_33_55
*1647 FILLER_0_33_72
*1648 FILLER_0_33_87