*SPEF "ieee 1481-1999"
*DESIGN "tt_um_marno_factorize"
*DATE "11:11:11 Fri 11 11, 1111"
*VENDOR "OpenRCX"
*PROGRAM "Parallel Extraction"
*VERSION "1.0"
*DESIGN_FLOW "NAME_SCOPE LOCAL" "PIN_CAP NONE"
*DIVIDER /
*DELIMITER :
*BUS_DELIMITER []
*T_UNIT 1 NS
*C_UNIT 1 PF
*R_UNIT 1 OHM
*L_UNIT 1 HENRY

*NAME_MAP
*3 clk
*4 ena
*5 rst_n
*6 ui_in[0]
*7 ui_in[1]
*8 ui_in[2]
*9 ui_in[3]
*10 ui_in[4]
*11 ui_in[5]
*12 ui_in[6]
*13 ui_in[7]
*14 uio_in[0]
*15 uio_in[1]
*16 uio_in[2]
*17 uio_in[3]
*18 uio_in[4]
*19 uio_in[5]
*20 uio_in[6]
*21 uio_in[7]
*22 net11
*23 net12
*24 net13
*25 net14
*26 net15
*27 net16
*28 net17
*29 net18
*30 uio_out[0]
*31 uio_out[1]
*32 uio_out[2]
*33 uio_out[3]
*34 uio_out[4]
*35 uio_out[5]
*36 uio_out[6]
*37 uio_out[7]
*38 uo_out[0]
*39 uo_out[1]
*40 uo_out[2]
*41 uo_out[3]
*42 uo_out[4]
*43 uo_out[5]
*44 uo_out[6]
*45 net10
*46 _0000_
*47 _0001_
*48 _0002_
*49 _0003_
*50 _0004_
*51 _0005_
*52 _0006_
*53 _0007_
*54 _0008_
*55 _0009_
*56 _0010_
*57 _0011_
*58 _0012_
*59 _0013_
*60 _0014_
*61 _0015_
*62 _0016_
*63 _0017_
*64 _0018_
*65 _0019_
*66 _0020_
*67 _0021_
*68 _0022_
*69 _0023_
*70 _0024_
*71 _0025_
*72 _0026_
*73 _0027_
*74 _0028_
*75 _0029_
*76 _0030_
*77 _0031_
*78 _0032_
*79 _0033_
*80 _0034_
*81 _0035_
*82 _0036_
*83 _0037_
*84 _0038_
*85 _0039_
*86 _0040_
*87 _0041_
*88 _0042_
*89 _0043_
*90 _0044_
*91 _0045_
*92 _0046_
*93 _0047_
*94 _0048_
*95 _0049_
*96 _0050_
*97 _0051_
*98 _0052_
*99 _0053_
*100 _0054_
*101 _0055_
*102 _0056_
*103 _0057_
*104 _0058_
*105 _0059_
*106 _0060_
*107 _0061_
*108 _0062_
*109 _0063_
*110 _0064_
*111 _0065_
*112 _0066_
*113 _0067_
*114 _0068_
*115 _0069_
*116 _0070_
*117 _0071_
*118 _0072_
*119 _0073_
*120 _0074_
*121 _0075_
*122 _0076_
*123 _0077_
*124 _0078_
*125 _0079_
*126 _0080_
*127 _0081_
*128 _0082_
*129 _0083_
*130 _0084_
*131 _0085_
*132 _0086_
*133 _0087_
*134 _0088_
*135 _0089_
*136 _0090_
*137 _0091_
*138 _0092_
*139 _0093_
*140 _0094_
*141 _0095_
*142 _0096_
*143 _0097_
*144 _0098_
*145 _0099_
*146 _0100_
*147 _0101_
*148 _0102_
*149 _0103_
*150 _0104_
*151 _0105_
*152 _0106_
*153 _0107_
*154 _0108_
*155 _0109_
*156 _0110_
*157 _0111_
*158 _0112_
*159 _0113_
*160 _0114_
*161 _0115_
*162 _0116_
*163 _0117_
*164 _0118_
*165 _0119_
*166 _0120_
*167 _0121_
*168 _0122_
*169 _0123_
*170 _0124_
*171 _0125_
*172 _0126_
*173 _0127_
*174 _0128_
*175 _0129_
*176 _0130_
*177 _0131_
*178 _0132_
*179 _0133_
*180 _0134_
*181 _0135_
*182 _0136_
*183 _0137_
*184 _0138_
*185 _0139_
*186 _0140_
*187 _0141_
*188 _0142_
*189 _0143_
*190 _0144_
*191 _0145_
*192 _0146_
*193 _0147_
*194 _0148_
*195 _0149_
*196 _0150_
*197 _0151_
*198 _0152_
*199 _0153_
*200 _0154_
*201 _0155_
*202 _0156_
*203 _0157_
*204 _0158_
*205 _0159_
*206 _0160_
*207 _0161_
*208 _0162_
*209 _0163_
*210 _0164_
*211 _0165_
*212 _0166_
*213 _0167_
*214 _0168_
*215 _0169_
*216 _0170_
*217 _0171_
*218 _0172_
*219 _0173_
*220 _0174_
*221 _0175_
*222 _0176_
*223 _0177_
*224 _0178_
*225 _0179_
*226 _0180_
*227 _0181_
*228 _0182_
*229 _0183_
*230 _0184_
*231 _0185_
*232 _0186_
*233 _0187_
*234 _0188_
*235 _0189_
*236 _0190_
*237 _0191_
*238 _0192_
*239 _0193_
*240 _0194_
*241 _0195_
*242 _0196_
*243 _0197_
*244 _0198_
*245 _0199_
*246 _0200_
*247 _0201_
*248 _0202_
*249 _0203_
*250 _0204_
*251 _0205_
*252 _0206_
*253 _0207_
*254 _0208_
*255 _0209_
*256 _0210_
*257 _0211_
*258 _0212_
*259 _0213_
*260 _0214_
*261 _0215_
*262 _0216_
*263 _0217_
*264 _0218_
*265 _0219_
*266 _0220_
*267 _0221_
*268 _0222_
*269 _0223_
*270 _0224_
*271 _0225_
*272 _0226_
*273 _0227_
*274 _0228_
*275 _0229_
*276 _0230_
*277 _0231_
*278 _0232_
*279 _0233_
*280 _0234_
*281 _0235_
*282 _0236_
*283 _0237_
*284 _0238_
*285 _0239_
*286 _0240_
*287 _0241_
*288 _0242_
*289 _0243_
*290 _0244_
*291 _0245_
*292 _0246_
*293 _0247_
*294 _0248_
*295 _0249_
*296 _0250_
*297 _0251_
*298 _0252_
*299 _0253_
*300 _0254_
*301 _0255_
*302 _0256_
*303 _0257_
*304 _0258_
*305 _0259_
*306 _0260_
*307 _0261_
*308 _0262_
*309 _0263_
*310 _0264_
*311 _0265_
*312 _0266_
*313 _0267_
*314 _0268_
*315 _0269_
*316 _0270_
*317 _0271_
*318 _0272_
*319 _0273_
*320 _0274_
*321 _0275_
*322 _0276_
*323 _0277_
*324 _0278_
*325 _0279_
*326 _0280_
*327 _0281_
*328 _0282_
*329 _0283_
*330 _0284_
*331 _0285_
*332 _0286_
*333 _0287_
*334 _0288_
*335 _0289_
*336 _0290_
*337 _0291_
*338 _0292_
*339 _0293_
*340 _0294_
*341 _0295_
*342 _0296_
*343 _0297_
*344 _0298_
*345 _0299_
*346 _0300_
*347 _0301_
*348 _0302_
*349 _0303_
*350 _0304_
*351 _0305_
*352 _0306_
*353 _0307_
*354 _0308_
*355 _0309_
*356 _0310_
*357 _0311_
*358 _0312_
*359 _0313_
*360 _0314_
*361 _0315_
*362 _0316_
*363 _0317_
*364 _0318_
*365 _0319_
*366 _0320_
*367 _0321_
*368 _0322_
*369 _0323_
*370 _0324_
*371 _0325_
*372 _0326_
*373 _0327_
*374 _0328_
*375 _0329_
*376 _0330_
*377 _0331_
*378 _0332_
*379 _0333_
*380 _0334_
*381 _0335_
*382 _0336_
*383 _0337_
*384 _0338_
*385 _0339_
*386 _0340_
*387 _0341_
*388 _0342_
*389 _0343_
*390 _0344_
*391 _0345_
*392 _0346_
*393 _0347_
*394 _0348_
*395 _0349_
*396 _0350_
*397 _0351_
*398 _0352_
*399 _0353_
*400 _0354_
*401 _0355_
*402 _0356_
*403 _0357_
*404 _0358_
*405 _0359_
*406 _0360_
*407 _0361_
*408 _0362_
*409 _0363_
*410 _0364_
*411 _0365_
*412 _0366_
*413 _0367_
*414 _0368_
*415 _0369_
*416 _0370_
*417 _0371_
*418 _0372_
*419 _0373_
*420 _0374_
*421 _0375_
*422 _0376_
*423 _0377_
*424 _0378_
*425 _0379_
*426 _0380_
*427 _0381_
*428 _0382_
*429 _0383_
*430 _0384_
*431 _0385_
*432 _0386_
*433 _0387_
*434 _0388_
*435 _0389_
*436 _0390_
*437 _0391_
*438 _0392_
*439 _0393_
*440 _0394_
*441 _0395_
*442 _0396_
*443 _0397_
*444 _0398_
*445 _0399_
*446 _0400_
*447 _0401_
*448 _0402_
*449 _0403_
*450 _0404_
*451 _0405_
*452 _0406_
*453 _0407_
*454 _0408_
*455 _0409_
*456 _0410_
*457 _0411_
*458 _0412_
*459 _0413_
*460 _0414_
*461 _0415_
*462 _0416_
*463 _0417_
*464 _0418_
*465 _0419_
*466 _0420_
*467 _0421_
*468 _0422_
*469 _0423_
*470 _0424_
*471 _0425_
*472 _0426_
*473 _0427_
*474 _0428_
*475 _0429_
*476 _0430_
*477 _0431_
*478 _0432_
*479 _0433_
*480 _0434_
*481 _0435_
*482 _0436_
*483 _0437_
*484 _0438_
*485 _0439_
*486 _0440_
*487 _0441_
*488 _0442_
*489 _0443_
*490 _0444_
*491 _0445_
*492 _0446_
*493 _0447_
*494 _0448_
*495 _0449_
*496 _0450_
*497 _0451_
*498 _0452_
*499 _0453_
*500 _0454_
*501 _0455_
*502 _0456_
*503 _0457_
*504 _0458_
*505 _0459_
*506 _0460_
*507 _0461_
*508 _0462_
*509 _0463_
*510 _0464_
*511 _0465_
*512 _0466_
*513 _0467_
*514 _0468_
*515 _0469_
*516 _0470_
*517 _0471_
*518 _0472_
*519 _0473_
*520 _0474_
*521 _0475_
*522 _0476_
*523 _0477_
*524 _0478_
*525 _0479_
*526 _0480_
*527 _0481_
*528 _0482_
*529 _0483_
*530 _0484_
*531 _0485_
*532 _0486_
*533 _0487_
*534 _0488_
*535 _0489_
*536 _0490_
*537 _0491_
*538 _0492_
*539 _0493_
*540 _0494_
*541 _0495_
*542 _0496_
*543 _0497_
*544 _0498_
*545 _0499_
*546 _0500_
*547 _0501_
*548 _0502_
*549 _0503_
*550 _0504_
*551 _0505_
*552 _0506_
*553 _0507_
*554 _0508_
*555 _0509_
*556 _0510_
*557 _0511_
*558 _0512_
*559 _0513_
*560 _0514_
*561 _0515_
*562 _0516_
*563 _0517_
*564 _0518_
*565 _0519_
*566 _0520_
*567 _0521_
*568 _0522_
*569 _0523_
*570 _0524_
*571 _0525_
*572 _0526_
*573 _0527_
*574 _0528_
*575 _0529_
*576 _0530_
*577 _0531_
*578 _0532_
*579 _0533_
*580 _0534_
*581 _0535_
*582 _0536_
*583 _0537_
*584 _0538_
*585 _0539_
*586 _0540_
*587 _0541_
*588 _0542_
*589 _0543_
*590 _0544_
*591 _0545_
*592 _0546_
*593 _0547_
*594 _0548_
*595 _0549_
*596 _0550_
*597 _0551_
*598 _0552_
*599 _0553_
*600 _0554_
*601 _0555_
*602 _0556_
*603 _0557_
*604 _0558_
*605 _0559_
*606 _0560_
*607 _0561_
*608 _0562_
*609 _0563_
*610 _0564_
*611 _0565_
*612 _0566_
*613 _0567_
*614 _0568_
*615 clknet_0_clk
*616 clknet_3_0__leaf_clk
*617 clknet_3_1__leaf_clk
*618 clknet_3_2__leaf_clk
*619 clknet_3_3__leaf_clk
*620 clknet_3_4__leaf_clk
*621 clknet_3_5__leaf_clk
*622 clknet_3_6__leaf_clk
*623 clknet_3_7__leaf_clk
*624 factorizer\.factors\[0\]
*625 factorizer\.factors\[10\]
*626 factorizer\.factors\[11\]
*627 factorizer\.factors\[12\]
*628 factorizer\.factors\[13\]
*629 factorizer\.factors\[15\]
*630 factorizer\.factors\[17\]
*631 factorizer\.factors\[1\]
*632 factorizer\.factors\[2\]
*633 factorizer\.factors\[3\]
*634 factorizer\.factors\[4\]
*635 factorizer\.factors\[5\]
*636 factorizer\.factors\[6\]
*637 factorizer\.factors\[7\]
*638 factorizer\.factors\[8\]
*639 factorizer\.factors\[9\]
*640 factorizer\.mod_eleven\[0\]
*641 factorizer\.mod_eleven\[1\]
*642 factorizer\.mod_eleven\[2\]
*643 factorizer\.mod_eleven\[3\]
*644 factorizer\.mod_eleven\[4\]
*645 factorizer\.mod_eleven\[5\]
*646 factorizer\.mod_five\[0\]
*647 factorizer\.mod_five\[1\]
*648 factorizer\.mod_five\[2\]
*649 factorizer\.mod_five\[3\]
*650 factorizer\.mod_five\[4\]
*651 factorizer\.mod_nine\[0\]
*652 factorizer\.mod_nine\[1\]
*653 factorizer\.mod_nine\[2\]
*654 factorizer\.mod_nine\[3\]
*655 factorizer\.mod_nine\[4\]
*656 factorizer\.mod_nineteen\[0\]
*657 factorizer\.mod_nineteen\[1\]
*658 factorizer\.mod_nineteen\[2\]
*659 factorizer\.mod_nineteen\[3\]
*660 factorizer\.mod_nineteen\[4\]
*661 factorizer\.mod_nineteen\[5\]
*662 factorizer\.mod_nineteen\[6\]
*663 factorizer\.mod_seven\[0\]
*664 factorizer\.mod_seven\[1\]
*665 factorizer\.mod_seven\[2\]
*666 factorizer\.mod_seven\[3\]
*667 factorizer\.mod_seven\[4\]
*668 factorizer\.mod_seventeen\[0\]
*669 factorizer\.mod_seventeen\[1\]
*670 factorizer\.mod_seventeen\[2\]
*671 factorizer\.mod_seventeen\[3\]
*672 factorizer\.mod_seventeen\[4\]
*673 factorizer\.mod_seventeen\[5\]
*674 factorizer\.mod_seventeen\[6\]
*675 factorizer\.mod_thirteen\[0\]
*676 factorizer\.mod_thirteen\[1\]
*677 factorizer\.mod_thirteen\[2\]
*678 factorizer\.mod_thirteen\[3\]
*679 factorizer\.mod_thirteen\[4\]
*680 factorizer\.mod_thirteen\[5\]
*681 factorizer\.mod_three\[0\]
*682 factorizer\.mod_three\[1\]
*683 factorizer\.mod_three\[2\]
*684 factorizer\.mod_three\[3\]
*685 net1
*686 net19
*687 net2
*688 net20
*689 net21
*690 net22
*691 net23
*692 net24
*693 net25
*694 net26
*695 net27
*696 net28
*697 net29
*698 net3
*699 net30
*700 net31
*701 net32
*702 net33
*703 net34
*704 net35
*705 net36
*706 net37
*707 net38
*708 net39
*709 net4
*710 net40
*711 net41
*712 net42
*713 net43
*714 net44
*715 net45
*716 net46
*717 net47
*718 net48
*719 net49
*720 net5
*721 net50
*722 net51
*723 net52
*724 net53
*725 net54
*726 net55
*727 net56
*728 net57
*729 net58
*730 net59
*731 net6
*732 net60
*733 net61
*734 net62
*735 net63
*736 net64
*737 net65
*738 net66
*739 net67
*740 net68
*741 net69
*742 net7
*743 net70
*744 net71
*745 net72
*746 net73
*747 net8
*748 net9
*749 new_digit\[0\]
*750 new_digit\[1\]
*751 new_digit\[2\]
*752 new_digit\[3\]
*753 old_input\[0\]
*754 old_input\[1\]
*755 old_input\[2\]
*756 old_input\[3\]
*757 old_input\[4\]
*758 old_input\[5\]
*759 old_input\[6\]
*760 old_input\[7\]
*761 second_counter\[0\]
*762 second_counter\[10\]
*763 second_counter\[11\]
*764 second_counter\[12\]
*765 second_counter\[13\]
*766 second_counter\[14\]
*767 second_counter\[15\]
*768 second_counter\[16\]
*769 second_counter\[17\]
*770 second_counter\[18\]
*771 second_counter\[19\]
*772 second_counter\[1\]
*773 second_counter\[20\]
*774 second_counter\[21\]
*775 second_counter\[22\]
*776 second_counter\[23\]
*777 second_counter\[2\]
*778 second_counter\[3\]
*779 second_counter\[4\]
*780 second_counter\[5\]
*781 second_counter\[6\]
*782 second_counter\[7\]
*783 second_counter\[8\]
*784 second_counter\[9\]
*785 seg7decoder\.counter\[0\]
*786 seg7decoder\.counter\[1\]
*787 seg7decoder\.counter\[2\]
*788 seg7decoder\.counter\[3\]
*789 FILLER_0_0_109
*790 FILLER_0_0_113
*791 FILLER_0_0_125
*792 FILLER_0_0_137
*793 FILLER_0_0_141
*794 FILLER_0_0_15
*795 FILLER_0_0_153
*796 FILLER_0_0_165
*797 FILLER_0_0_169
*798 FILLER_0_0_181
*799 FILLER_0_0_193
*800 FILLER_0_0_197
*801 FILLER_0_0_209
*802 FILLER_0_0_221
*803 FILLER_0_0_225
*804 FILLER_0_0_237
*805 FILLER_0_0_249
*806 FILLER_0_0_253
*807 FILLER_0_0_265
*808 FILLER_0_0_27
*809 FILLER_0_0_277
*810 FILLER_0_0_281
*811 FILLER_0_0_29
*812 FILLER_0_0_293
*813 FILLER_0_0_3
*814 FILLER_0_0_305
*815 FILLER_0_0_309
*816 FILLER_0_0_321
*817 FILLER_0_0_333
*818 FILLER_0_0_337
*819 FILLER_0_0_349
*820 FILLER_0_0_41
*821 FILLER_0_0_53
*822 FILLER_0_0_57
*823 FILLER_0_0_69
*824 FILLER_0_0_81
*825 FILLER_0_0_85
*826 FILLER_0_0_97
*827 FILLER_0_10_109
*828 FILLER_0_10_121
*829 FILLER_0_10_133
*830 FILLER_0_10_139
*831 FILLER_0_10_141
*832 FILLER_0_10_149
*833 FILLER_0_10_15
*834 FILLER_0_10_170
*835 FILLER_0_10_182
*836 FILLER_0_10_194
*837 FILLER_0_10_213
*838 FILLER_0_10_225
*839 FILLER_0_10_229
*840 FILLER_0_10_27
*841 FILLER_0_10_279
*842 FILLER_0_10_29
*843 FILLER_0_10_291
*844 FILLER_0_10_298
*845 FILLER_0_10_3
*846 FILLER_0_10_306
*847 FILLER_0_10_309
*848 FILLER_0_10_336
*849 FILLER_0_10_342
*850 FILLER_0_10_350
*851 FILLER_0_10_41
*852 FILLER_0_10_53
*853 FILLER_0_10_65
*854 FILLER_0_10_77
*855 FILLER_0_10_83
*856 FILLER_0_10_85
*857 FILLER_0_10_97
*858 FILLER_0_11_105
*859 FILLER_0_11_111
*860 FILLER_0_11_113
*861 FILLER_0_11_125
*862 FILLER_0_11_131
*863 FILLER_0_11_15
*864 FILLER_0_11_167
*865 FILLER_0_11_186
*866 FILLER_0_11_204
*867 FILLER_0_11_216
*868 FILLER_0_11_225
*869 FILLER_0_11_231
*870 FILLER_0_11_238
*871 FILLER_0_11_27
*872 FILLER_0_11_278
*873 FILLER_0_11_3
*874 FILLER_0_11_39
*875 FILLER_0_11_51
*876 FILLER_0_11_55
*877 FILLER_0_11_57
*878 FILLER_0_11_69
*879 FILLER_0_11_81
*880 FILLER_0_11_93
*881 FILLER_0_12_109
*882 FILLER_0_12_121
*883 FILLER_0_12_133
*884 FILLER_0_12_139
*885 FILLER_0_12_141
*886 FILLER_0_12_146
*887 FILLER_0_12_15
*888 FILLER_0_12_157
*889 FILLER_0_12_175
*890 FILLER_0_12_213
*891 FILLER_0_12_225
*892 FILLER_0_12_234
*893 FILLER_0_12_246
*894 FILLER_0_12_265
*895 FILLER_0_12_27
*896 FILLER_0_12_29
*897 FILLER_0_12_293
*898 FILLER_0_12_3
*899 FILLER_0_12_306
*900 FILLER_0_12_349
*901 FILLER_0_12_41
*902 FILLER_0_12_53
*903 FILLER_0_12_65
*904 FILLER_0_12_77
*905 FILLER_0_12_83
*906 FILLER_0_12_85
*907 FILLER_0_12_97
*908 FILLER_0_13_105
*909 FILLER_0_13_111
*910 FILLER_0_13_129
*911 FILLER_0_13_141
*912 FILLER_0_13_147
*913 FILLER_0_13_15
*914 FILLER_0_13_161
*915 FILLER_0_13_167
*916 FILLER_0_13_177
*917 FILLER_0_13_210
*918 FILLER_0_13_223
*919 FILLER_0_13_225
*920 FILLER_0_13_233
*921 FILLER_0_13_255
*922 FILLER_0_13_267
*923 FILLER_0_13_27
*924 FILLER_0_13_279
*925 FILLER_0_13_281
*926 FILLER_0_13_291
*927 FILLER_0_13_3
*928 FILLER_0_13_323
*929 FILLER_0_13_346
*930 FILLER_0_13_350
*931 FILLER_0_13_39
*932 FILLER_0_13_51
*933 FILLER_0_13_55
*934 FILLER_0_13_57
*935 FILLER_0_13_69
*936 FILLER_0_13_81
*937 FILLER_0_13_93
*938 FILLER_0_14_101
*939 FILLER_0_14_125
*940 FILLER_0_14_137
*941 FILLER_0_14_141
*942 FILLER_0_14_15
*943 FILLER_0_14_158
*944 FILLER_0_14_168
*945 FILLER_0_14_180
*946 FILLER_0_14_184
*947 FILLER_0_14_192
*948 FILLER_0_14_218
*949 FILLER_0_14_230
*950 FILLER_0_14_261
*951 FILLER_0_14_27
*952 FILLER_0_14_271
*953 FILLER_0_14_275
*954 FILLER_0_14_281
*955 FILLER_0_14_29
*956 FILLER_0_14_293
*957 FILLER_0_14_299
*958 FILLER_0_14_3
*959 FILLER_0_14_306
*960 FILLER_0_14_312
*961 FILLER_0_14_329
*962 FILLER_0_14_338
*963 FILLER_0_14_350
*964 FILLER_0_14_41
*965 FILLER_0_14_53
*966 FILLER_0_14_65
*967 FILLER_0_14_77
*968 FILLER_0_15_101
*969 FILLER_0_15_106
*970 FILLER_0_15_118
*971 FILLER_0_15_130
*972 FILLER_0_15_142
*973 FILLER_0_15_15
*974 FILLER_0_15_150
*975 FILLER_0_15_156
*976 FILLER_0_15_165
*977 FILLER_0_15_169
*978 FILLER_0_15_181
*979 FILLER_0_15_189
*980 FILLER_0_15_198
*981 FILLER_0_15_212
*982 FILLER_0_15_225
*983 FILLER_0_15_233
*984 FILLER_0_15_255
*985 FILLER_0_15_261
*986 FILLER_0_15_278
*987 FILLER_0_15_286
*988 FILLER_0_15_29
*989 FILLER_0_15_3
*990 FILLER_0_15_325
*991 FILLER_0_15_333
*992 FILLER_0_15_337
*993 FILLER_0_15_349
*994 FILLER_0_15_41
*995 FILLER_0_15_53
*996 FILLER_0_15_57
*997 FILLER_0_15_69
*998 FILLER_0_15_81
*999 FILLER_0_15_93
*1000 FILLER_0_16_11
*1001 FILLER_0_16_130
*1002 FILLER_0_16_138
*1003 FILLER_0_16_151
*1004 FILLER_0_16_170
*1005 FILLER_0_16_182
*1006 FILLER_0_16_193
*1007 FILLER_0_16_205
*1008 FILLER_0_16_209
*1009 FILLER_0_16_220
*1010 FILLER_0_16_228
*1011 FILLER_0_16_269
*1012 FILLER_0_16_280
*1013 FILLER_0_16_29
*1014 FILLER_0_16_292
*1015 FILLER_0_16_3
*1016 FILLER_0_16_303
*1017 FILLER_0_16_307
*1018 FILLER_0_16_309
*1019 FILLER_0_16_315
*1020 FILLER_0_16_328
*1021 FILLER_0_16_346
*1022 FILLER_0_16_350
*1023 FILLER_0_16_48
*1024 FILLER_0_16_60
*1025 FILLER_0_16_72
*1026 FILLER_0_16_85
*1027 FILLER_0_17_111
*1028 FILLER_0_17_154
*1029 FILLER_0_17_169
*1030 FILLER_0_17_184
*1031 FILLER_0_17_196
*1032 FILLER_0_17_218
*1033 FILLER_0_17_237
*1034 FILLER_0_17_242
*1035 FILLER_0_17_254
*1036 FILLER_0_17_262
*1037 FILLER_0_17_271
*1038 FILLER_0_17_278
*1039 FILLER_0_17_285
*1040 FILLER_0_17_291
*1041 FILLER_0_17_3
*1042 FILLER_0_17_313
*1043 FILLER_0_17_317
*1044 FILLER_0_17_331
*1045 FILLER_0_17_335
*1046 FILLER_0_17_49
*1047 FILLER_0_17_55
*1048 FILLER_0_17_73
*1049 FILLER_0_17_85
*1050 FILLER_0_17_93
*1051 FILLER_0_18_105
*1052 FILLER_0_18_130
*1053 FILLER_0_18_138
*1054 FILLER_0_18_141
*1055 FILLER_0_18_153
*1056 FILLER_0_18_160
*1057 FILLER_0_18_173
*1058 FILLER_0_18_185
*1059 FILLER_0_18_193
*1060 FILLER_0_18_240
*1061 FILLER_0_18_253
*1062 FILLER_0_18_262
*1063 FILLER_0_18_27
*1064 FILLER_0_18_270
*1065 FILLER_0_18_275
*1066 FILLER_0_18_287
*1067 FILLER_0_18_294
*1068 FILLER_0_18_3
*1069 FILLER_0_18_306
*1070 FILLER_0_18_309
*1071 FILLER_0_18_333
*1072 FILLER_0_18_345
*1073 FILLER_0_18_43
*1074 FILLER_0_18_78
*1075 FILLER_0_19_11
*1076 FILLER_0_19_113
*1077 FILLER_0_19_123
*1078 FILLER_0_19_129
*1079 FILLER_0_19_136
*1080 FILLER_0_19_148
*1081 FILLER_0_19_152
*1082 FILLER_0_19_16
*1083 FILLER_0_19_163
*1084 FILLER_0_19_167
*1085 FILLER_0_19_169
*1086 FILLER_0_19_174
*1087 FILLER_0_19_186
*1088 FILLER_0_19_198
*1089 FILLER_0_19_210
*1090 FILLER_0_19_216
*1091 FILLER_0_19_232
*1092 FILLER_0_19_244
*1093 FILLER_0_19_252
*1094 FILLER_0_19_259
*1095 FILLER_0_19_267
*1096 FILLER_0_19_276
*1097 FILLER_0_19_281
*1098 FILLER_0_19_293
*1099 FILLER_0_19_3
*1100 FILLER_0_19_301
*1101 FILLER_0_19_309
*1102 FILLER_0_19_321
*1103 FILLER_0_19_333
*1104 FILLER_0_19_337
*1105 FILLER_0_19_34
*1106 FILLER_0_19_349
*1107 FILLER_0_19_46
*1108 FILLER_0_19_54
*1109 FILLER_0_19_81
*1110 FILLER_0_19_93
*1111 FILLER_0_1_105
*1112 FILLER_0_1_111
*1113 FILLER_0_1_113
*1114 FILLER_0_1_125
*1115 FILLER_0_1_137
*1116 FILLER_0_1_149
*1117 FILLER_0_1_15
*1118 FILLER_0_1_161
*1119 FILLER_0_1_167
*1120 FILLER_0_1_169
*1121 FILLER_0_1_181
*1122 FILLER_0_1_193
*1123 FILLER_0_1_205
*1124 FILLER_0_1_217
*1125 FILLER_0_1_223
*1126 FILLER_0_1_225
*1127 FILLER_0_1_237
*1128 FILLER_0_1_249
*1129 FILLER_0_1_261
*1130 FILLER_0_1_27
*1131 FILLER_0_1_273
*1132 FILLER_0_1_279
*1133 FILLER_0_1_281
*1134 FILLER_0_1_293
*1135 FILLER_0_1_3
*1136 FILLER_0_1_305
*1137 FILLER_0_1_317
*1138 FILLER_0_1_329
*1139 FILLER_0_1_335
*1140 FILLER_0_1_337
*1141 FILLER_0_1_349
*1142 FILLER_0_1_39
*1143 FILLER_0_1_51
*1144 FILLER_0_1_55
*1145 FILLER_0_1_57
*1146 FILLER_0_1_69
*1147 FILLER_0_1_81
*1148 FILLER_0_1_93
*1149 FILLER_0_20_109
*1150 FILLER_0_20_117
*1151 FILLER_0_20_127
*1152 FILLER_0_20_139
*1153 FILLER_0_20_141
*1154 FILLER_0_20_15
*1155 FILLER_0_20_181
*1156 FILLER_0_20_205
*1157 FILLER_0_20_213
*1158 FILLER_0_20_222
*1159 FILLER_0_20_230
*1160 FILLER_0_20_246
*1161 FILLER_0_20_253
*1162 FILLER_0_20_276
*1163 FILLER_0_20_282
*1164 FILLER_0_20_296
*1165 FILLER_0_20_3
*1166 FILLER_0_20_306
*1167 FILLER_0_20_309
*1168 FILLER_0_20_346
*1169 FILLER_0_20_350
*1170 FILLER_0_20_48
*1171 FILLER_0_20_67
*1172 FILLER_0_20_85
*1173 FILLER_0_21_102
*1174 FILLER_0_21_108
*1175 FILLER_0_21_11
*1176 FILLER_0_21_153
*1177 FILLER_0_21_161
*1178 FILLER_0_21_167
*1179 FILLER_0_21_169
*1180 FILLER_0_21_175
*1181 FILLER_0_21_204
*1182 FILLER_0_21_219
*1183 FILLER_0_21_223
*1184 FILLER_0_21_238
*1185 FILLER_0_21_253
*1186 FILLER_0_21_264
*1187 FILLER_0_21_276
*1188 FILLER_0_21_281
*1189 FILLER_0_21_293
*1190 FILLER_0_21_3
*1191 FILLER_0_21_302
*1192 FILLER_0_21_314
*1193 FILLER_0_21_322
*1194 FILLER_0_21_335
*1195 FILLER_0_21_337
*1196 FILLER_0_21_347
*1197 FILLER_0_21_37
*1198 FILLER_0_21_45
*1199 FILLER_0_21_73
*1200 FILLER_0_21_90
*1201 FILLER_0_22_101
*1202 FILLER_0_22_11
*1203 FILLER_0_22_162
*1204 FILLER_0_22_167
*1205 FILLER_0_22_179
*1206 FILLER_0_22_187
*1207 FILLER_0_22_211
*1208 FILLER_0_22_220
*1209 FILLER_0_22_231
*1210 FILLER_0_22_235
*1211 FILLER_0_22_242
*1212 FILLER_0_22_250
*1213 FILLER_0_22_264
*1214 FILLER_0_22_276
*1215 FILLER_0_22_288
*1216 FILLER_0_22_3
*1217 FILLER_0_22_307
*1218 FILLER_0_22_316
*1219 FILLER_0_22_340
*1220 FILLER_0_22_348
*1221 FILLER_0_22_46
*1222 FILLER_0_22_54
*1223 FILLER_0_22_76
*1224 FILLER_0_22_85
*1225 FILLER_0_22_97
*1226 FILLER_0_23_113
*1227 FILLER_0_23_135
*1228 FILLER_0_23_167
*1229 FILLER_0_23_169
*1230 FILLER_0_23_182
*1231 FILLER_0_23_207
*1232 FILLER_0_23_219
*1233 FILLER_0_23_223
*1234 FILLER_0_23_225
*1235 FILLER_0_23_237
*1236 FILLER_0_23_245
*1237 FILLER_0_23_25
*1238 FILLER_0_23_250
*1239 FILLER_0_23_256
*1240 FILLER_0_23_274
*1241 FILLER_0_23_3
*1242 FILLER_0_23_304
*1243 FILLER_0_23_316
*1244 FILLER_0_23_335
*1245 FILLER_0_23_342
*1246 FILLER_0_23_350
*1247 FILLER_0_23_43
*1248 FILLER_0_23_54
*1249 FILLER_0_23_57
*1250 FILLER_0_23_71
*1251 FILLER_0_23_75
*1252 FILLER_0_23_92
*1253 FILLER_0_24_109
*1254 FILLER_0_24_135
*1255 FILLER_0_24_139
*1256 FILLER_0_24_144
*1257 FILLER_0_24_15
*1258 FILLER_0_24_165
*1259 FILLER_0_24_169
*1260 FILLER_0_24_190
*1261 FILLER_0_24_194
*1262 FILLER_0_24_209
*1263 FILLER_0_24_221
*1264 FILLER_0_24_229
*1265 FILLER_0_24_237
*1266 FILLER_0_24_253
*1267 FILLER_0_24_261
*1268 FILLER_0_24_293
*1269 FILLER_0_24_3
*1270 FILLER_0_24_305
*1271 FILLER_0_24_309
*1272 FILLER_0_24_317
*1273 FILLER_0_24_324
*1274 FILLER_0_24_344
*1275 FILLER_0_24_350
*1276 FILLER_0_24_45
*1277 FILLER_0_24_51
*1278 FILLER_0_24_59
*1279 FILLER_0_24_71
*1280 FILLER_0_24_83
*1281 FILLER_0_24_85
*1282 FILLER_0_24_97
*1283 FILLER_0_25_107
*1284 FILLER_0_25_111
*1285 FILLER_0_25_129
*1286 FILLER_0_25_141
*1287 FILLER_0_25_147
*1288 FILLER_0_25_15
*1289 FILLER_0_25_155
*1290 FILLER_0_25_167
*1291 FILLER_0_25_169
*1292 FILLER_0_25_181
*1293 FILLER_0_25_193
*1294 FILLER_0_25_214
*1295 FILLER_0_25_222
*1296 FILLER_0_25_225
*1297 FILLER_0_25_250
*1298 FILLER_0_25_257
*1299 FILLER_0_25_261
*1300 FILLER_0_25_275
*1301 FILLER_0_25_279
*1302 FILLER_0_25_290
*1303 FILLER_0_25_298
*1304 FILLER_0_25_3
*1305 FILLER_0_25_309
*1306 FILLER_0_25_332
*1307 FILLER_0_25_345
*1308 FILLER_0_25_55
*1309 FILLER_0_25_57
*1310 FILLER_0_25_65
*1311 FILLER_0_25_84
*1312 FILLER_0_25_96
*1313 FILLER_0_26_135
*1314 FILLER_0_26_139
*1315 FILLER_0_26_157
*1316 FILLER_0_26_161
*1317 FILLER_0_26_178
*1318 FILLER_0_26_189
*1319 FILLER_0_26_195
*1320 FILLER_0_26_206
*1321 FILLER_0_26_214
*1322 FILLER_0_26_226
*1323 FILLER_0_26_247
*1324 FILLER_0_26_251
*1325 FILLER_0_26_253
*1326 FILLER_0_26_26
*1327 FILLER_0_26_262
*1328 FILLER_0_26_29
*1329 FILLER_0_26_3
*1330 FILLER_0_26_300
*1331 FILLER_0_26_304
*1332 FILLER_0_26_343
*1333 FILLER_0_26_51
*1334 FILLER_0_26_63
*1335 FILLER_0_26_88
*1336 FILLER_0_26_9
*1337 FILLER_0_27_134
*1338 FILLER_0_27_140
*1339 FILLER_0_27_15
*1340 FILLER_0_27_165
*1341 FILLER_0_27_176
*1342 FILLER_0_27_188
*1343 FILLER_0_27_194
*1344 FILLER_0_27_199
*1345 FILLER_0_27_216
*1346 FILLER_0_27_222
*1347 FILLER_0_27_225
*1348 FILLER_0_27_234
*1349 FILLER_0_27_246
*1350 FILLER_0_27_258
*1351 FILLER_0_27_267
*1352 FILLER_0_27_281
*1353 FILLER_0_27_290
*1354 FILLER_0_27_3
*1355 FILLER_0_27_302
*1356 FILLER_0_27_314
*1357 FILLER_0_27_328
*1358 FILLER_0_27_337
*1359 FILLER_0_27_349
*1360 FILLER_0_27_45
*1361 FILLER_0_27_53
*1362 FILLER_0_27_57
*1363 FILLER_0_27_61
*1364 FILLER_0_27_99
*1365 FILLER_0_28_105
*1366 FILLER_0_28_11
*1367 FILLER_0_28_132
*1368 FILLER_0_28_157
*1369 FILLER_0_28_175
*1370 FILLER_0_28_180
*1371 FILLER_0_28_192
*1372 FILLER_0_28_205
*1373 FILLER_0_28_217
*1374 FILLER_0_28_282
*1375 FILLER_0_28_295
*1376 FILLER_0_28_3
*1377 FILLER_0_28_307
*1378 FILLER_0_28_316
*1379 FILLER_0_28_343
*1380 FILLER_0_28_47
*1381 FILLER_0_28_55
*1382 FILLER_0_28_67
*1383 FILLER_0_28_79
*1384 FILLER_0_29_104
*1385 FILLER_0_29_122
*1386 FILLER_0_29_131
*1387 FILLER_0_29_143
*1388 FILLER_0_29_152
*1389 FILLER_0_29_164
*1390 FILLER_0_29_169
*1391 FILLER_0_29_189
*1392 FILLER_0_29_201
*1393 FILLER_0_29_206
*1394 FILLER_0_29_21
*1395 FILLER_0_29_215
*1396 FILLER_0_29_223
*1397 FILLER_0_29_261
*1398 FILLER_0_29_276
*1399 FILLER_0_29_281
*1400 FILLER_0_29_293
*1401 FILLER_0_29_3
*1402 FILLER_0_29_305
*1403 FILLER_0_29_347
*1404 FILLER_0_29_57
*1405 FILLER_0_29_64
*1406 FILLER_0_29_74
*1407 FILLER_0_29_85
*1408 FILLER_0_29_97
*1409 FILLER_0_2_109
*1410 FILLER_0_2_121
*1411 FILLER_0_2_133
*1412 FILLER_0_2_139
*1413 FILLER_0_2_141
*1414 FILLER_0_2_15
*1415 FILLER_0_2_153
*1416 FILLER_0_2_165
*1417 FILLER_0_2_177
*1418 FILLER_0_2_189
*1419 FILLER_0_2_195
*1420 FILLER_0_2_197
*1421 FILLER_0_2_209
*1422 FILLER_0_2_221
*1423 FILLER_0_2_233
*1424 FILLER_0_2_245
*1425 FILLER_0_2_251
*1426 FILLER_0_2_253
*1427 FILLER_0_2_265
*1428 FILLER_0_2_27
*1429 FILLER_0_2_277
*1430 FILLER_0_2_289
*1431 FILLER_0_2_29
*1432 FILLER_0_2_3
*1433 FILLER_0_2_301
*1434 FILLER_0_2_307
*1435 FILLER_0_2_309
*1436 FILLER_0_2_321
*1437 FILLER_0_2_333
*1438 FILLER_0_2_345
*1439 FILLER_0_2_41
*1440 FILLER_0_2_53
*1441 FILLER_0_2_65
*1442 FILLER_0_2_77
*1443 FILLER_0_2_83
*1444 FILLER_0_2_85
*1445 FILLER_0_2_97
*1446 FILLER_0_30_104
*1447 FILLER_0_30_135
*1448 FILLER_0_30_139
*1449 FILLER_0_30_141
*1450 FILLER_0_30_153
*1451 FILLER_0_30_158
*1452 FILLER_0_30_167
*1453 FILLER_0_30_171
*1454 FILLER_0_30_179
*1455 FILLER_0_30_192
*1456 FILLER_0_30_197
*1457 FILLER_0_30_205
*1458 FILLER_0_30_214
*1459 FILLER_0_30_226
*1460 FILLER_0_30_238
*1461 FILLER_0_30_253
*1462 FILLER_0_30_265
*1463 FILLER_0_30_27
*1464 FILLER_0_30_29
*1465 FILLER_0_30_3
*1466 FILLER_0_30_303
*1467 FILLER_0_30_307
*1468 FILLER_0_30_343
*1469 FILLER_0_30_43
*1470 FILLER_0_30_51
*1471 FILLER_0_30_92
*1472 FILLER_0_31_144
*1473 FILLER_0_31_15
*1474 FILLER_0_31_164
*1475 FILLER_0_31_169
*1476 FILLER_0_31_177
*1477 FILLER_0_31_181
*1478 FILLER_0_31_203
*1479 FILLER_0_31_215
*1480 FILLER_0_31_223
*1481 FILLER_0_31_225
*1482 FILLER_0_31_253
*1483 FILLER_0_31_265
*1484 FILLER_0_31_273
*1485 FILLER_0_31_3
*1486 FILLER_0_31_305
*1487 FILLER_0_31_316
*1488 FILLER_0_31_337
*1489 FILLER_0_31_349
*1490 FILLER_0_31_39
*1491 FILLER_0_31_51
*1492 FILLER_0_31_55
*1493 FILLER_0_31_57
*1494 FILLER_0_32_135
*1495 FILLER_0_32_139
*1496 FILLER_0_32_15
*1497 FILLER_0_32_170
*1498 FILLER_0_32_178
*1499 FILLER_0_32_21
*1500 FILLER_0_32_216
*1501 FILLER_0_32_228
*1502 FILLER_0_32_251
*1503 FILLER_0_32_265
*1504 FILLER_0_32_277
*1505 FILLER_0_32_290
*1506 FILLER_0_32_299
*1507 FILLER_0_32_3
*1508 FILLER_0_32_303
*1509 FILLER_0_32_309
*1510 FILLER_0_32_323
*1511 FILLER_0_32_327
*1512 FILLER_0_32_344
*1513 FILLER_0_32_350
*1514 FILLER_0_32_45
*1515 FILLER_0_32_57
*1516 FILLER_0_32_91
*1517 FILLER_0_32_97
*1518 FILLER_0_33_106
*1519 FILLER_0_33_128
*1520 FILLER_0_33_165
*1521 FILLER_0_33_169
*1522 FILLER_0_33_181
*1523 FILLER_0_33_209
*1524 FILLER_0_33_221
*1525 FILLER_0_33_225
*1526 FILLER_0_33_233
*1527 FILLER_0_33_24
*1528 FILLER_0_33_251
*1529 FILLER_0_33_258
*1530 FILLER_0_33_270
*1531 FILLER_0_33_279
*1532 FILLER_0_33_281
*1533 FILLER_0_33_285
*1534 FILLER_0_33_289
*1535 FILLER_0_33_3
*1536 FILLER_0_33_30
*1537 FILLER_0_33_301
*1538 FILLER_0_33_309
*1539 FILLER_0_33_315
*1540 FILLER_0_33_323
*1541 FILLER_0_33_327
*1542 FILLER_0_33_335
*1543 FILLER_0_33_337
*1544 FILLER_0_33_349
*1545 FILLER_0_33_36
*1546 FILLER_0_33_48
*1547 FILLER_0_33_57
*1548 FILLER_0_33_69
*1549 FILLER_0_33_7
*1550 FILLER_0_33_75
*1551 FILLER_0_33_82
*1552 FILLER_0_33_94
*1553 FILLER_0_34_106
*1554 FILLER_0_34_11
*1555 FILLER_0_34_118
*1556 FILLER_0_34_130
*1557 FILLER_0_34_138
*1558 FILLER_0_34_141
*1559 FILLER_0_34_166
*1560 FILLER_0_34_200
*1561 FILLER_0_34_212
*1562 FILLER_0_34_224
*1563 FILLER_0_34_253
*1564 FILLER_0_34_265
*1565 FILLER_0_34_290
*1566 FILLER_0_34_3
*1567 FILLER_0_34_302
*1568 FILLER_0_34_312
*1569 FILLER_0_34_318
*1570 FILLER_0_34_322
*1571 FILLER_0_34_33
*1572 FILLER_0_34_339
*1573 FILLER_0_34_45
*1574 FILLER_0_34_57
*1575 FILLER_0_34_79
*1576 FILLER_0_34_83
*1577 FILLER_0_34_94
*1578 FILLER_0_35_110
*1579 FILLER_0_35_113
*1580 FILLER_0_35_119
*1581 FILLER_0_35_134
*1582 FILLER_0_35_146
*1583 FILLER_0_35_156
*1584 FILLER_0_35_169
*1585 FILLER_0_35_185
*1586 FILLER_0_35_204
*1587 FILLER_0_35_216
*1588 FILLER_0_35_225
*1589 FILLER_0_35_234
*1590 FILLER_0_35_247
*1591 FILLER_0_35_259
*1592 FILLER_0_35_271
*1593 FILLER_0_35_279
*1594 FILLER_0_35_28
*1595 FILLER_0_35_281
*1596 FILLER_0_35_293
*1597 FILLER_0_35_3
*1598 FILLER_0_35_307
*1599 FILLER_0_35_318
*1600 FILLER_0_35_322
*1601 FILLER_0_35_329
*1602 FILLER_0_35_335
*1603 FILLER_0_35_345
*1604 FILLER_0_35_43
*1605 FILLER_0_35_55
*1606 FILLER_0_35_7
*1607 FILLER_0_35_98
*1608 FILLER_0_36_144
*1609 FILLER_0_36_156
*1610 FILLER_0_36_26
*1611 FILLER_0_36_261
*1612 FILLER_0_36_269
*1613 FILLER_0_36_286
*1614 FILLER_0_36_290
*1615 FILLER_0_36_3
*1616 FILLER_0_36_307
*1617 FILLER_0_36_317
*1618 FILLER_0_36_322
*1619 FILLER_0_36_347
*1620 FILLER_0_36_45
*1621 FILLER_0_36_49
*1622 FILLER_0_36_94
*1623 FILLER_0_36_98
*1624 FILLER_0_37_109
*1625 FILLER_0_37_113
*1626 FILLER_0_37_123
*1627 FILLER_0_37_141
*1628 FILLER_0_37_149
*1629 FILLER_0_37_207
*1630 FILLER_0_37_219
*1631 FILLER_0_37_223
*1632 FILLER_0_37_225
*1633 FILLER_0_37_264
*1634 FILLER_0_37_27
*1635 FILLER_0_37_276
*1636 FILLER_0_37_288
*1637 FILLER_0_37_3
*1638 FILLER_0_37_300
*1639 FILLER_0_37_343
*1640 FILLER_0_37_35
*1641 FILLER_0_37_47
*1642 FILLER_0_37_55
*1643 FILLER_0_37_57
*1644 FILLER_0_37_7
*1645 FILLER_0_37_81
*1646 FILLER_0_37_98
*1647 FILLER_0_38_101
*1648 FILLER_0_38_105
*1649 FILLER_0_38_129
*1650 FILLER_0_38_137
*1651 FILLER_0_38_14
*1652 FILLER_0_38_144
*1653 FILLER_0_38_156
*1654 FILLER_0_38_162
*1655 FILLER_0_38_169