*SPEF "ieee 1481-1999"
*DESIGN "tt_um_santacrc_tamagotchi"
*DATE "11:11:11 Fri 11 11, 1111"
*VENDOR "OpenRCX"
*PROGRAM "Parallel Extraction"
*VERSION "1.0"
*DESIGN_FLOW "NAME_SCOPE LOCAL" "PIN_CAP NONE"
*DIVIDER /
*DELIMITER :
*BUS_DELIMITER []
*T_UNIT 1 NS
*C_UNIT 1 PF
*R_UNIT 1 OHM
*L_UNIT 1 HENRY

*NAME_MAP
*3 clk
*4 ena
*5 rst_n
*6 ui_in[0]
*7 ui_in[1]
*8 ui_in[2]
*9 ui_in[3]
*10 ui_in[4]
*11 ui_in[5]
*12 ui_in[6]
*13 ui_in[7]
*14 uio_in[0]
*15 uio_in[1]
*16 uio_in[2]
*17 uio_in[3]
*18 uio_in[4]
*19 uio_in[5]
*20 uio_in[6]
*21 uio_in[7]
*22 net26
*23 net27
*24 net28
*25 net29
*26 net30
*27 net31
*28 net32
*29 net33
*30 net11
*31 net12
*32 net13
*33 net14
*34 net15
*35 net16
*36 net17
*37 net18
*38 uo_out[0]
*39 net19
*40 net20
*41 net21
*42 net22
*43 net23
*44 net24
*45 net25
*46 _0000_
*47 _0001_
*48 _0002_
*49 _0003_
*50 _0004_
*51 _0005_
*52 _0006_
*53 _0007_
*54 _0008_
*55 _0009_
*56 _0010_
*57 _0011_
*58 _0012_
*59 _0013_
*60 _0014_
*61 _0015_
*62 _0016_
*63 _0017_
*64 _0018_
*65 _0019_
*66 _0020_
*67 _0021_
*68 _0022_
*69 _0023_
*70 _0024_
*71 _0025_
*72 _0026_
*73 _0027_
*74 _0028_
*75 _0029_
*76 _0030_
*77 _0031_
*78 _0032_
*79 _0033_
*80 _0034_
*81 _0035_
*82 _0036_
*83 _0037_
*84 _0038_
*85 _0039_
*86 _0040_
*87 _0041_
*88 _0042_
*89 _0043_
*90 _0044_
*91 _0045_
*92 _0046_
*93 _0047_
*94 _0048_
*95 _0049_
*96 _0050_
*97 _0051_
*98 _0052_
*99 _0053_
*100 _0054_
*101 _0055_
*102 _0056_
*103 _0057_
*104 _0058_
*105 _0059_
*106 _0060_
*107 _0061_
*108 _0062_
*109 _0063_
*110 _0064_
*111 _0065_
*112 _0066_
*113 _0067_
*114 _0068_
*115 _0069_
*116 _0070_
*117 _0071_
*118 _0072_
*119 _0073_
*120 _0074_
*121 _0075_
*122 _0076_
*123 _0077_
*124 _0078_
*125 _0079_
*126 _0080_
*127 _0081_
*128 _0082_
*129 _0083_
*130 _0084_
*131 _0085_
*132 _0086_
*133 _0087_
*134 _0088_
*135 _0089_
*136 _0090_
*137 _0091_
*138 _0092_
*139 _0093_
*140 _0094_
*141 _0095_
*142 _0096_
*143 _0097_
*144 _0098_
*145 _0099_
*146 _0100_
*147 _0101_
*148 _0102_
*149 _0103_
*150 _0104_
*151 _0105_
*152 _0106_
*153 _0107_
*154 _0108_
*155 _0109_
*156 _0110_
*157 _0111_
*158 _0112_
*159 _0113_
*160 _0114_
*161 _0115_
*162 _0116_
*163 _0117_
*164 _0118_
*165 _0119_
*166 _0120_
*167 _0121_
*168 _0122_
*169 _0123_
*170 _0124_
*171 _0125_
*172 _0126_
*173 _0127_
*174 _0128_
*175 _0129_
*176 _0130_
*177 _0131_
*178 _0132_
*179 _0133_
*180 _0134_
*181 _0135_
*182 _0136_
*183 _0137_
*184 _0138_
*185 _0139_
*186 _0140_
*187 _0141_
*188 _0142_
*189 _0143_
*190 _0144_
*191 _0145_
*192 _0146_
*193 _0147_
*194 _0148_
*195 _0149_
*196 _0150_
*197 _0151_
*198 _0152_
*199 _0153_
*200 _0154_
*201 _0155_
*202 _0156_
*203 _0157_
*204 _0158_
*205 _0159_
*206 _0160_
*207 _0161_
*208 _0162_
*209 _0163_
*210 _0164_
*211 _0165_
*212 _0166_
*213 _0167_
*214 _0168_
*215 _0169_
*216 _0170_
*217 _0171_
*218 _0172_
*219 _0173_
*220 _0174_
*221 _0175_
*222 _0176_
*223 _0177_
*224 _0178_
*225 _0179_
*226 _0180_
*227 _0181_
*228 _0182_
*229 _0183_
*230 _0184_
*231 _0185_
*232 _0186_
*233 _0187_
*234 _0188_
*235 _0189_
*236 _0190_
*237 _0191_
*238 _0192_
*239 _0193_
*240 _0194_
*241 _0195_
*242 _0196_
*243 _0197_
*244 _0198_
*245 _0199_
*246 _0200_
*247 _0201_
*248 _0202_
*249 _0203_
*250 _0204_
*251 _0205_
*252 _0206_
*253 _0207_
*254 _0208_
*255 _0209_
*256 _0210_
*257 _0211_
*258 _0212_
*259 _0213_
*260 _0214_
*261 _0215_
*262 _0216_
*263 _0217_
*264 _0218_
*265 _0219_
*266 _0220_
*267 _0221_
*268 _0222_
*269 _0223_
*270 _0224_
*271 _0225_
*272 _0226_
*273 _0227_
*274 _0228_
*275 _0229_
*276 _0230_
*277 _0231_
*278 _0232_
*279 _0233_
*280 _0234_
*281 _0235_
*282 _0236_
*283 _0237_
*284 _0238_
*285 _0239_
*286 _0240_
*287 _0241_
*288 _0242_
*289 _0243_
*290 _0244_
*291 _0245_
*292 _0246_
*293 _0247_
*294 _0248_
*295 _0249_
*296 _0250_
*297 _0251_
*298 _0252_
*299 _0253_
*300 _0254_
*301 _0255_
*302 _0256_
*303 _0257_
*304 _0258_
*305 _0259_
*306 _0260_
*307 _0261_
*308 _0262_
*309 _0263_
*310 _0264_
*311 _0265_
*312 _0266_
*313 _0267_
*314 _0268_
*315 _0269_
*316 _0270_
*317 _0271_
*318 _0272_
*319 _0273_
*320 _0274_
*321 _0275_
*322 _0276_
*323 _0277_
*324 _0278_
*325 _0279_
*326 _0280_
*327 _0281_
*328 _0282_
*329 _0283_
*330 _0284_
*331 _0285_
*332 _0286_
*333 _0287_
*334 _0288_
*335 _0289_
*336 _0290_
*337 _0291_
*338 _0292_
*339 _0293_
*340 _0294_
*341 _0295_
*342 _0296_
*343 _0297_
*344 _0298_
*345 _0299_
*346 _0300_
*347 _0301_
*348 _0302_
*349 _0303_
*350 _0304_
*351 _0305_
*352 _0306_
*353 _0307_
*354 _0308_
*355 _0309_
*356 _0310_
*357 _0311_
*358 _0312_
*359 _0313_
*360 _0314_
*361 _0315_
*362 _0316_
*363 _0317_
*364 _0318_
*365 _0319_
*366 _0320_
*367 _0321_
*368 _0322_
*369 _0323_
*370 _0324_
*371 _0325_
*372 _0326_
*373 _0327_
*374 _0328_
*375 _0329_
*376 _0330_
*377 _0331_
*378 _0332_
*379 _0333_
*380 _0334_
*381 _0335_
*382 _0336_
*383 _0337_
*384 _0338_
*385 _0339_
*386 _0340_
*387 _0341_
*388 _0342_
*389 _0343_
*390 _0344_
*391 _0345_
*392 _0346_
*393 _0347_
*394 _0348_
*395 _0349_
*396 _0350_
*397 _0351_
*398 _0352_
*399 _0353_
*400 _0354_
*401 _0355_
*402 _0356_
*403 _0357_
*404 _0358_
*405 _0359_
*406 _0360_
*407 _0361_
*408 _0362_
*409 _0363_
*410 _0364_
*411 _0365_
*412 _0366_
*413 _0367_
*414 _0368_
*415 _0369_
*416 _0370_
*417 _0371_
*418 _0372_
*419 _0373_
*420 _0374_
*421 _0375_
*422 _0376_
*423 _0377_
*424 _0378_
*425 _0379_
*426 _0380_
*427 _0381_
*428 _0382_
*429 _0383_
*430 _0384_
*431 _0385_
*432 _0386_
*433 _0387_
*434 _0388_
*435 _0389_
*436 _0390_
*437 _0391_
*438 _0392_
*439 _0393_
*440 _0394_
*441 _0395_
*442 _0396_
*443 _0397_
*444 _0398_
*445 _0399_
*446 _0400_
*447 _0401_
*448 _0402_
*449 _0403_
*450 _0404_
*451 _0405_
*452 _0406_
*453 _0407_
*454 _0408_
*455 _0409_
*456 _0410_
*457 _0411_
*458 _0412_
*459 _0413_
*460 _0414_
*461 _0415_
*462 _0416_
*463 _0417_
*464 _0418_
*465 _0419_
*466 _0420_
*467 _0421_
*468 _0422_
*469 _0423_
*470 _0424_
*471 _0425_
*472 _0426_
*473 _0427_
*474 _0428_
*475 _0429_
*476 _0430_
*477 _0431_
*478 _0432_
*479 _0433_
*480 _0434_
*481 _0435_
*482 _0436_
*483 _0437_
*484 _0438_
*485 _0439_
*486 _0440_
*487 _0441_
*488 _0442_
*489 _0443_
*490 _0444_
*491 _0445_
*492 _0446_
*493 _0447_
*494 _0448_
*495 _0449_
*496 _0450_
*497 _0451_
*498 _0452_
*499 _0453_
*500 _0454_
*501 _0455_
*502 _0456_
*503 _0457_
*504 _0458_
*505 _0459_
*506 _0460_
*507 _0461_
*508 _0462_
*509 _0463_
*510 _0464_
*511 _0465_
*512 _0466_
*513 _0467_
*514 _0468_
*515 _0469_
*516 _0470_
*517 _0471_
*518 _0472_
*519 _0473_
*520 _0474_
*521 _0475_
*522 _0476_
*523 _0477_
*524 _0478_
*525 _0479_
*526 _0480_
*527 _0481_
*528 _0482_
*529 _0483_
*530 _0484_
*531 _0485_
*532 _0486_
*533 _0487_
*534 _0488_
*535 _0489_
*536 _0490_
*537 _0491_
*538 _0492_
*539 _0493_
*540 _0494_
*541 _0495_
*542 _0496_
*543 _0497_
*544 _0498_
*545 _0499_
*546 _0500_
*547 _0501_
*548 _0502_
*549 _0503_
*550 _0504_
*551 _0505_
*552 _0506_
*553 _0507_
*554 _0508_
*555 _0509_
*556 _0510_
*557 _0511_
*558 _0512_
*559 _0513_
*560 _0514_
*561 _0515_
*562 _0516_
*563 _0517_
*564 _0518_
*565 _0519_
*566 _0520_
*567 _0521_
*568 _0522_
*569 _0523_
*570 _0524_
*571 _0525_
*572 _0526_
*573 _0527_
*574 _0528_
*575 _0529_
*576 _0530_
*577 _0531_
*578 _0532_
*579 _0533_
*580 _0534_
*581 _0535_
*582 _0536_
*583 _0537_
*584 _0538_
*585 _0539_
*586 _0540_
*587 _0541_
*588 _0542_
*589 _0543_
*590 _0544_
*591 _0545_
*592 _0546_
*593 _0547_
*594 _0548_
*595 _0549_
*596 _0550_
*597 _0551_
*598 _0552_
*599 _0553_
*600 _0554_
*601 _0555_
*602 _0556_
*603 _0557_
*604 _0558_
*605 _0559_
*606 _0560_
*607 _0561_
*608 _0562_
*609 _0563_
*610 _0564_
*611 _0565_
*612 _0566_
*613 _0567_
*614 _0568_
*615 _0569_
*616 _0570_
*617 _0571_
*618 _0572_
*619 _0573_
*620 _0574_
*621 _0575_
*622 _0576_
*623 _0577_
*624 _0578_
*625 _0579_
*626 _0580_
*627 _0581_
*628 _0582_
*629 _0583_
*630 _0584_
*631 _0585_
*632 _0586_
*633 _0587_
*634 _0588_
*635 _0589_
*636 _0590_
*637 _0591_
*638 _0592_
*639 _0593_
*640 _0594_
*641 _0595_
*642 _0596_
*643 _0597_
*644 _0598_
*645 _0599_
*646 _0600_
*647 _0601_
*648 _0602_
*649 _0603_
*650 _0604_
*651 _0605_
*652 _0606_
*653 _0607_
*654 _0608_
*655 _0609_
*656 _0610_
*657 _0611_
*658 _0612_
*659 _0613_
*660 _0614_
*661 _0615_
*662 _0616_
*663 _0617_
*664 _0618_
*665 _0619_
*666 _0620_
*667 _0621_
*668 _0622_
*669 _0623_
*670 _0624_
*671 _0625_
*672 _0626_
*673 _0627_
*674 _0628_
*675 _0629_
*676 _0630_
*677 _0631_
*678 _0632_
*679 _0633_
*680 _0634_
*681 _0635_
*682 _0636_
*683 _0637_
*684 _0638_
*685 _0639_
*686 _0640_
*687 _0641_
*688 _0642_
*689 _0643_
*690 _0644_
*691 _0645_
*692 _0646_
*693 _0647_
*694 _0648_
*695 _0649_
*696 _0650_
*697 _0651_
*698 _0652_
*699 _0653_
*700 _0654_
*701 _0655_
*702 _0656_
*703 _0657_
*704 _0658_
*705 _0659_
*706 _0660_
*707 _0661_
*708 _0662_
*709 _0663_
*710 _0664_
*711 _0665_
*712 _0666_
*713 _0667_
*714 _0668_
*715 _0669_
*716 _0670_
*717 _0671_
*718 _0672_
*719 _0673_
*720 _0674_
*721 _0675_
*722 _0676_
*723 _0677_
*724 _0678_
*725 _0679_
*726 _0680_
*727 _0681_
*728 _0682_
*729 _0683_
*730 _0684_
*731 _0685_
*732 _0686_
*733 _0687_
*734 _0688_
*735 _0689_
*736 _0690_
*737 _0691_
*738 _0692_
*739 _0693_
*740 _0694_
*741 _0695_
*742 _0696_
*743 _0697_
*744 _0698_
*745 _0699_
*746 _0700_
*747 _0701_
*748 _0702_
*749 _0703_
*750 _0704_
*751 _0705_
*752 _0706_
*753 _0707_
*754 _0708_
*755 _0709_
*756 _0710_
*757 _0711_
*758 _0712_
*759 _0713_
*760 _0714_
*761 _0715_
*762 _0716_
*763 _0717_
*764 _0718_
*765 _0719_
*766 _0720_
*767 _0721_
*768 _0722_
*769 _0723_
*770 _0724_
*771 _0725_
*772 _0726_
*773 _0727_
*774 _0728_
*775 _0729_
*776 _0730_
*777 _0731_
*778 _0732_
*779 _0733_
*780 _0734_
*781 _0735_
*782 _0736_
*783 _0737_
*784 _0738_
*785 clknet_0_clk
*786 clknet_4_0_0_clk
*787 clknet_4_10_0_clk
*788 clknet_4_11_0_clk
*789 clknet_4_12_0_clk
*790 clknet_4_13_0_clk
*791 clknet_4_14_0_clk
*792 clknet_4_15_0_clk
*793 clknet_4_1_0_clk
*794 clknet_4_2_0_clk
*795 clknet_4_3_0_clk
*796 clknet_4_4_0_clk
*797 clknet_4_5_0_clk
*798 clknet_4_6_0_clk
*799 clknet_4_7_0_clk
*800 clknet_4_8_0_clk
*801 clknet_4_9_0_clk
*802 net1
*803 net10
*804 net100
*805 net101
*806 net102
*807 net103
*808 net104
*809 net105
*810 net106
*811 net107
*812 net108
*813 net109
*814 net110
*815 net111
*816 net112
*817 net113
*818 net114
*819 net115
*820 net116
*821 net117
*822 net118
*823 net119
*824 net120
*825 net121
*826 net122
*827 net123
*828 net124
*829 net125
*830 net126
*831 net127
*832 net128
*833 net129
*834 net130
*835 net131
*836 net132
*837 net133
*838 net134
*839 net135
*840 net136
*841 net137
*842 net2
*843 net3
*844 net34
*845 net35
*846 net36
*847 net37
*848 net38
*849 net39
*850 net4
*851 net40
*852 net41
*853 net42
*854 net43
*855 net44
*856 net45
*857 net46
*858 net47
*859 net48
*860 net49
*861 net5
*862 net50
*863 net51
*864 net52
*865 net53
*866 net54
*867 net55
*868 net56
*869 net57
*870 net58
*871 net59
*872 net6
*873 net60
*874 net61
*875 net62
*876 net63
*877 net64
*878 net65
*879 net66
*880 net67
*881 net68
*882 net69
*883 net7
*884 net70
*885 net71
*886 net72
*887 net73
*888 net74
*889 net75
*890 net76
*891 net77
*892 net78
*893 net79
*894 net8
*895 net80
*896 net81
*897 net82
*898 net83
*899 net84
*900 net85
*901 net86
*902 net87
*903 net88
*904 net89
*905 net9
*906 net90
*907 net91
*908 net92
*909 net93
*910 net94
*911 net95
*912 net96
*913 net97
*914 net98
*915 net99
*916 random\.lfsr_reg\[0\]
*917 random\.lfsr_reg\[1\]
*918 random\.lfsr_reg\[2\]
*919 random\.lfsr_reg\[3\]
*920 random\.lfsr_reg\[4\]
*921 random\.lfsr_reg\[5\]
*922 random\.lfsr_reg\[6\]
*923 random\.lfsr_reg\[7\]
*924 stats\.count\[0\]
*925 stats\.count\[10\]
*926 stats\.count\[11\]
*927 stats\.count\[12\]
*928 stats\.count\[13\]
*929 stats\.count\[14\]
*930 stats\.count\[15\]
*931 stats\.count\[16\]
*932 stats\.count\[17\]
*933 stats\.count\[18\]
*934 stats\.count\[19\]
*935 stats\.count\[1\]
*936 stats\.count\[20\]
*937 stats\.count\[21\]
*938 stats\.count\[22\]
*939 stats\.count\[23\]
*940 stats\.count\[24\]
*941 stats\.count\[25\]
*942 stats\.count\[26\]
*943 stats\.count\[27\]
*944 stats\.count\[2\]
*945 stats\.count\[3\]
*946 stats\.count\[4\]
*947 stats\.count\[5\]
*948 stats\.count\[6\]
*949 stats\.count\[7\]
*950 stats\.count\[8\]
*951 stats\.count\[9\]
*952 stats\.energy\[0\]
*953 stats\.energy\[1\]
*954 stats\.energy\[2\]
*955 stats\.energy\[3\]
*956 stats\.energy\[4\]
*957 stats\.happiness\[0\]
*958 stats\.happiness\[1\]
*959 stats\.happiness\[2\]
*960 stats\.happiness\[3\]
*961 stats\.happiness\[4\]
*962 stats\.hunger\[0\]
*963 stats\.hunger\[1\]
*964 stats\.hunger\[2\]
*965 stats\.hunger\[3\]
*966 stats\.hunger\[4\]
*967 stats\.hygiene\[0\]
*968 stats\.hygiene\[1\]
*969 stats\.hygiene\[2\]
*970 stats\.hygiene\[3\]
*971 stats\.hygiene\[4\]
*972 stats\.inputs\[0\]
*973 stats\.inputs\[1\]
*974 stats\.inputs\[2\]
*975 stats\.inputs\[3\]
*976 stats\.inputs\[4\]
*977 stats\.inputs\[5\]
*978 stats\.inputs\[6\]
*979 stats\.inputs\[7\]
*980 stats\.is_sleeping
*981 stats\.only_one
*982 stats\.second
*983 stats\.social\[0\]
*984 stats\.social\[1\]
*985 stats\.social\[2\]
*986 stats\.social\[3\]
*987 stats\.social\[4\]
*988 uart\.byteReady
*989 uart\.dataIn\[0\]
*990 uart\.dataIn\[1\]
*991 uart\.dataIn\[2\]
*992 uart\.dataIn\[3\]
*993 uart\.dataIn\[4\]
*994 uart\.dataIn\[5\]
*995 uart\.dataIn\[6\]
*996 uart\.dataIn\[7\]
*997 uart\.dataOut\[0\]
*998 uart\.dataOut\[1\]
*999 uart\.dataOut\[2\]
*1000 uart\.dataOut\[3\]
*1001 uart\.dataOut\[4\]
*1002 uart\.dataOut\[5\]
*1003 uart\.dataOut\[6\]
*1004 uart\.rxBitNumber\[0\]
*1005 uart\.rxBitNumber\[1\]
*1006 uart\.rxBitNumber\[2\]
*1007 uart\.rxCounter\[0\]
*1008 uart\.rxCounter\[10\]
*1009 uart\.rxCounter\[11\]
*1010 uart\.rxCounter\[12\]
*1011 uart\.rxCounter\[1\]
*1012 uart\.rxCounter\[2\]
*1013 uart\.rxCounter\[3\]
*1014 uart\.rxCounter\[4\]
*1015 uart\.rxCounter\[5\]
*1016 uart\.rxCounter\[6\]
*1017 uart\.rxCounter\[7\]
*1018 uart\.rxCounter\[8\]
*1019 uart\.rxCounter\[9\]
*1020 uart\.rxState\[0\]
*1021 uart\.rxState\[1\]
*1022 uart\.rxState\[2\]
*1023 uart\.txBitNumber\[0\]
*1024 uart\.txBitNumber\[1\]
*1025 uart\.txBitNumber\[2\]
*1026 uart\.txByteCounter\[0\]
*1027 uart\.txByteCounter\[1\]
*1028 uart\.txByteCounter\[2\]
*1029 uart\.txByteCounter\[3\]
*1030 uart\.txByteCounter\[4\]
*1031 uart\.txByteCounter\[5\]
*1032 uart\.txByteCounter\[6\]
*1033 uart\.txByteCounter\[7\]
*1034 uart\.txCounter\[0\]
*1035 uart\.txCounter\[10\]
*1036 uart\.txCounter\[11\]
*1037 uart\.txCounter\[12\]
*1038 uart\.txCounter\[13\]
*1039 uart\.txCounter\[14\]
*1040 uart\.txCounter\[15\]
*1041 uart\.txCounter\[16\]
*1042 uart\.txCounter\[17\]
*1043 uart\.txCounter\[18\]
*1044 uart\.txCounter\[19\]
*1045 uart\.txCounter\[1\]
*1046 uart\.txCounter\[20\]
*1047 uart\.txCounter\[21\]
*1048 uart\.txCounter\[22\]
*1049 uart\.txCounter\[23\]
*1050 uart\.txCounter\[24\]
*1051 uart\.txCounter\[2\]
*1052 uart\.txCounter\[3\]
*1053 uart\.txCounter\[4\]
*1054 uart\.txCounter\[5\]
*1055 uart\.txCounter\[6\]
*1056 uart\.txCounter\[7\]
*1057 uart\.txCounter\[8\]
*1058 uart\.txCounter\[9\]
*1059 uart\.txPinRegister
*1060 uart\.txState\[0\]
*1061 uart\.txState\[1\]
*1062 uart\.txState\[2\]
*1063 FILLER_0_0_105
*1064 FILLER_0_0_111
*1065 FILLER_0_0_113
*1066 FILLER_0_0_125
*1067 FILLER_0_0_137
*1068 FILLER_0_0_15
*1069 FILLER_0_0_153
*1070 FILLER_0_0_165
*1071 FILLER_0_0_169
*1072 FILLER_0_0_181
*1073 FILLER_0_0_193
*1074 FILLER_0_0_207
*1075 FILLER_0_0_218
*1076 FILLER_0_0_225
*1077 FILLER_0_0_233
*1078 FILLER_0_0_241
*1079 FILLER_0_0_249
*1080 FILLER_0_0_256
*1081 FILLER_0_0_268
*1082 FILLER_0_0_27
*1083 FILLER_0_0_281
*1084 FILLER_0_0_29
*1085 FILLER_0_0_293
*1086 FILLER_0_0_3
*1087 FILLER_0_0_305
*1088 FILLER_0_0_309
*1089 FILLER_0_0_321
*1090 FILLER_0_0_333
*1091 FILLER_0_0_337
*1092 FILLER_0_0_349
*1093 FILLER_0_0_41
*1094 FILLER_0_0_53
*1095 FILLER_0_0_57
*1096 FILLER_0_0_69
*1097 FILLER_0_0_81
*1098 FILLER_0_10_129
*1099 FILLER_0_10_133
*1100 FILLER_0_10_141
*1101 FILLER_0_10_15
*1102 FILLER_0_10_161
*1103 FILLER_0_10_194
*1104 FILLER_0_10_200
*1105 FILLER_0_10_206
*1106 FILLER_0_10_220
*1107 FILLER_0_10_248
*1108 FILLER_0_10_264
*1109 FILLER_0_10_271
*1110 FILLER_0_10_283
*1111 FILLER_0_10_3
*1112 FILLER_0_10_349
*1113 FILLER_0_10_50
*1114 FILLER_0_10_62
*1115 FILLER_0_10_70
*1116 FILLER_0_10_74
*1117 FILLER_0_10_78
*1118 FILLER_0_10_85
*1119 FILLER_0_10_95
*1120 FILLER_0_11_109
*1121 FILLER_0_11_15
*1122 FILLER_0_11_166
*1123 FILLER_0_11_169
*1124 FILLER_0_11_206
*1125 FILLER_0_11_218
*1126 FILLER_0_11_225
*1127 FILLER_0_11_23
*1128 FILLER_0_11_234
*1129 FILLER_0_11_255
*1130 FILLER_0_11_273
*1131 FILLER_0_11_279
*1132 FILLER_0_11_281
*1133 FILLER_0_11_3
*1134 FILLER_0_11_316
*1135 FILLER_0_11_328
*1136 FILLER_0_11_334
*1137 FILLER_0_11_340
*1138 FILLER_0_11_347
*1139 FILLER_0_11_37
*1140 FILLER_0_11_52
*1141 FILLER_0_11_62
*1142 FILLER_0_11_83
*1143 FILLER_0_11_87
*1144 FILLER_0_12_112
*1145 FILLER_0_12_124
*1146 FILLER_0_12_132
*1147 FILLER_0_12_15
*1148 FILLER_0_12_151
*1149 FILLER_0_12_158
*1150 FILLER_0_12_166
*1151 FILLER_0_12_183
*1152 FILLER_0_12_194
*1153 FILLER_0_12_197
*1154 FILLER_0_12_209
*1155 FILLER_0_12_217
*1156 FILLER_0_12_251
*1157 FILLER_0_12_253
*1158 FILLER_0_12_275
*1159 FILLER_0_12_287
*1160 FILLER_0_12_29
*1161 FILLER_0_12_299
*1162 FILLER_0_12_3
*1163 FILLER_0_12_307
*1164 FILLER_0_12_320
*1165 FILLER_0_12_332
*1166 FILLER_0_12_336
*1167 FILLER_0_12_348
*1168 FILLER_0_12_53
*1169 FILLER_0_12_83
*1170 FILLER_0_12_85
*1171 FILLER_0_13_113
*1172 FILLER_0_13_125
*1173 FILLER_0_13_137
*1174 FILLER_0_13_141
*1175 FILLER_0_13_15
*1176 FILLER_0_13_153
*1177 FILLER_0_13_165
*1178 FILLER_0_13_169
*1179 FILLER_0_13_198
*1180 FILLER_0_13_210
*1181 FILLER_0_13_222
*1182 FILLER_0_13_225
*1183 FILLER_0_13_236
*1184 FILLER_0_13_252
*1185 FILLER_0_13_265
*1186 FILLER_0_13_277
*1187 FILLER_0_13_288
*1188 FILLER_0_13_296
*1189 FILLER_0_13_3
*1190 FILLER_0_13_306
*1191 FILLER_0_13_315
*1192 FILLER_0_13_319
*1193 FILLER_0_13_326
*1194 FILLER_0_13_335
*1195 FILLER_0_13_340
*1196 FILLER_0_13_348
*1197 FILLER_0_13_53
*1198 FILLER_0_13_57
*1199 FILLER_0_13_84
*1200 FILLER_0_13_88
*1201 FILLER_0_13_94
*1202 FILLER_0_14_109
*1203 FILLER_0_14_121
*1204 FILLER_0_14_133
*1205 FILLER_0_14_139
*1206 FILLER_0_14_141
*1207 FILLER_0_14_147
*1208 FILLER_0_14_15
*1209 FILLER_0_14_162
*1210 FILLER_0_14_174
*1211 FILLER_0_14_186
*1212 FILLER_0_14_194
*1213 FILLER_0_14_220
*1214 FILLER_0_14_251
*1215 FILLER_0_14_261
*1216 FILLER_0_14_27
*1217 FILLER_0_14_273
*1218 FILLER_0_14_285
*1219 FILLER_0_14_29
*1220 FILLER_0_14_299
*1221 FILLER_0_14_3
*1222 FILLER_0_14_326
*1223 FILLER_0_14_348
*1224 FILLER_0_14_41
*1225 FILLER_0_14_53
*1226 FILLER_0_14_65
*1227 FILLER_0_14_77
*1228 FILLER_0_14_83
*1229 FILLER_0_14_85
*1230 FILLER_0_14_97
*1231 FILLER_0_15_106
*1232 FILLER_0_15_113
*1233 FILLER_0_15_125
*1234 FILLER_0_15_15
*1235 FILLER_0_15_150
*1236 FILLER_0_15_162
*1237 FILLER_0_15_169
*1238 FILLER_0_15_183
*1239 FILLER_0_15_192
*1240 FILLER_0_15_225
*1241 FILLER_0_15_231
*1242 FILLER_0_15_247
*1243 FILLER_0_15_254
*1244 FILLER_0_15_266
*1245 FILLER_0_15_27
*1246 FILLER_0_15_274
*1247 FILLER_0_15_3
*1248 FILLER_0_15_335
*1249 FILLER_0_15_345
*1250 FILLER_0_15_39
*1251 FILLER_0_15_51
*1252 FILLER_0_15_55
*1253 FILLER_0_15_57
*1254 FILLER_0_15_69
*1255 FILLER_0_15_81
*1256 FILLER_0_15_87
*1257 FILLER_0_16_111
*1258 FILLER_0_16_118
*1259 FILLER_0_16_15
*1260 FILLER_0_16_156
*1261 FILLER_0_16_194
*1262 FILLER_0_16_200
*1263 FILLER_0_16_212
*1264 FILLER_0_16_218
*1265 FILLER_0_16_226
*1266 FILLER_0_16_232
*1267 FILLER_0_16_245
*1268 FILLER_0_16_251
*1269 FILLER_0_16_260
*1270 FILLER_0_16_268
*1271 FILLER_0_16_27
*1272 FILLER_0_16_275
*1273 FILLER_0_16_287
*1274 FILLER_0_16_299
*1275 FILLER_0_16_3
*1276 FILLER_0_16_307
*1277 FILLER_0_16_350
*1278 FILLER_0_16_51
*1279 FILLER_0_16_63
*1280 FILLER_0_16_74
*1281 FILLER_0_16_80
*1282 FILLER_0_16_85
*1283 FILLER_0_17_108
*1284 FILLER_0_17_113
*1285 FILLER_0_17_151
*1286 FILLER_0_17_163
*1287 FILLER_0_17_169
*1288 FILLER_0_17_196
*1289 FILLER_0_17_208
*1290 FILLER_0_17_220
*1291 FILLER_0_17_251
*1292 FILLER_0_17_281
*1293 FILLER_0_17_293
*1294 FILLER_0_17_3
*1295 FILLER_0_17_305
*1296 FILLER_0_17_317
*1297 FILLER_0_17_332
*1298 FILLER_0_17_337
*1299 FILLER_0_17_349
*1300 FILLER_0_17_57
*1301 FILLER_0_17_73
*1302 FILLER_0_17_79
*1303 FILLER_0_18_101
*1304 FILLER_0_18_111
*1305 FILLER_0_18_139
*1306 FILLER_0_18_147
*1307 FILLER_0_18_169
*1308 FILLER_0_18_187
*1309 FILLER_0_18_195
*1310 FILLER_0_18_197
*1311 FILLER_0_18_201
*1312 FILLER_0_18_210
*1313 FILLER_0_18_221
*1314 FILLER_0_18_229
*1315 FILLER_0_18_253
*1316 FILLER_0_18_27
*1317 FILLER_0_18_283
*1318 FILLER_0_18_29
*1319 FILLER_0_18_294
*1320 FILLER_0_18_3
*1321 FILLER_0_18_309
*1322 FILLER_0_18_318
*1323 FILLER_0_18_349
*1324 FILLER_0_18_37
*1325 FILLER_0_18_45
*1326 FILLER_0_18_53
*1327 FILLER_0_18_59
*1328 FILLER_0_18_77
*1329 FILLER_0_18_83
*1330 FILLER_0_19_109
*1331 FILLER_0_19_113
*1332 FILLER_0_19_120
*1333 FILLER_0_19_132
*1334 FILLER_0_19_144
*1335 FILLER_0_19_148
*1336 FILLER_0_19_160
*1337 FILLER_0_19_164
*1338 FILLER_0_19_182
*1339 FILLER_0_19_186
*1340 FILLER_0_19_205
*1341 FILLER_0_19_209
*1342 FILLER_0_19_222
*1343 FILLER_0_19_236
*1344 FILLER_0_19_248
*1345 FILLER_0_19_256
*1346 FILLER_0_19_27
*1347 FILLER_0_19_279
*1348 FILLER_0_19_294
*1349 FILLER_0_19_3
*1350 FILLER_0_19_335
*1351 FILLER_0_19_349
*1352 FILLER_0_19_39
*1353 FILLER_0_19_47
*1354 FILLER_0_19_55
*1355 FILLER_0_19_57
*1356 FILLER_0_19_69
*1357 FILLER_0_19_78
*1358 FILLER_0_19_85
*1359 FILLER_0_19_97
*1360 FILLER_0_1_111
*1361 FILLER_0_1_134
*1362 FILLER_0_1_15
*1363 FILLER_0_1_162
*1364 FILLER_0_1_169
*1365 FILLER_0_1_177
*1366 FILLER_0_1_220
*1367 FILLER_0_1_225
*1368 FILLER_0_1_258
*1369 FILLER_0_1_27
*1370 FILLER_0_1_281
*1371 FILLER_0_1_293
*1372 FILLER_0_1_3
*1373 FILLER_0_1_31
*1374 FILLER_0_1_317
*1375 FILLER_0_1_329
*1376 FILLER_0_1_335
*1377 FILLER_0_1_345
*1378 FILLER_0_1_52
*1379 FILLER_0_1_57
*1380 FILLER_0_1_69
*1381 FILLER_0_1_73
*1382 FILLER_0_1_77
*1383 FILLER_0_20_110
*1384 FILLER_0_20_120
*1385 FILLER_0_20_132
*1386 FILLER_0_20_141
*1387 FILLER_0_20_153
*1388 FILLER_0_20_245
*1389 FILLER_0_20_251
*1390 FILLER_0_20_253
*1391 FILLER_0_20_261
*1392 FILLER_0_20_271
*1393 FILLER_0_20_3
*1394 FILLER_0_20_300
*1395 FILLER_0_20_309
*1396 FILLER_0_20_32
*1397 FILLER_0_20_321
*1398 FILLER_0_20_345
*1399 FILLER_0_20_40
*1400 FILLER_0_20_53
*1401 FILLER_0_20_65
*1402 FILLER_0_20_7
*1403 FILLER_0_20_77
*1404 FILLER_0_20_83
*1405 FILLER_0_20_85
*1406 FILLER_0_20_93
*1407 FILLER_0_20_97
*1408 FILLER_0_21_100
*1409 FILLER_0_21_107
*1410 FILLER_0_21_111
*1411 FILLER_0_21_113
*1412 FILLER_0_21_125
*1413 FILLER_0_21_137
*1414 FILLER_0_21_148
*1415 FILLER_0_21_15
*1416 FILLER_0_21_178
*1417 FILLER_0_21_186
*1418 FILLER_0_21_225
*1419 FILLER_0_21_237
*1420 FILLER_0_21_25
*1421 FILLER_0_21_273
*1422 FILLER_0_21_279
*1423 FILLER_0_21_289
*1424 FILLER_0_21_297
*1425 FILLER_0_21_3
*1426 FILLER_0_21_314
*1427 FILLER_0_21_326
*1428 FILLER_0_21_334
*1429 FILLER_0_21_346
*1430 FILLER_0_21_35
*1431 FILLER_0_21_350
*1432 FILLER_0_21_55
*1433 FILLER_0_21_57
*1434 FILLER_0_21_73
*1435 FILLER_0_21_95
*1436 FILLER_0_22_109
*1437 FILLER_0_22_123
*1438 FILLER_0_22_135
*1439 FILLER_0_22_139
*1440 FILLER_0_22_15
*1441 FILLER_0_22_157
*1442 FILLER_0_22_184
*1443 FILLER_0_22_21
*1444 FILLER_0_22_211
*1445 FILLER_0_22_222
*1446 FILLER_0_22_234
*1447 FILLER_0_22_245
*1448 FILLER_0_22_27
*1449 FILLER_0_22_270
*1450 FILLER_0_22_284
*1451 FILLER_0_22_29
*1452 FILLER_0_22_296
*1453 FILLER_0_22_3
*1454 FILLER_0_22_307
*1455 FILLER_0_22_325
*1456 FILLER_0_22_344
*1457 FILLER_0_22_350
*1458 FILLER_0_22_39
*1459 FILLER_0_22_45
*1460 FILLER_0_22_49
*1461 FILLER_0_22_57
*1462 FILLER_0_22_82
*1463 FILLER_0_22_89
*1464 FILLER_0_22_97
*1465 FILLER_0_23_106
*1466 FILLER_0_23_133
*1467 FILLER_0_23_145
*1468 FILLER_0_23_149
*1469 FILLER_0_23_161
*1470 FILLER_0_23_167
*1471 FILLER_0_23_169
*1472 FILLER_0_23_173
*1473 FILLER_0_23_194
*1474 FILLER_0_23_203
*1475 FILLER_0_23_211
*1476 FILLER_0_23_223
*1477 FILLER_0_23_225
*1478 FILLER_0_23_229
*1479 FILLER_0_23_24
*1480 FILLER_0_23_254
*1481 FILLER_0_23_266
*1482 FILLER_0_23_291
*1483 FILLER_0_23_3
*1484 FILLER_0_23_323
*1485 FILLER_0_23_334
*1486 FILLER_0_23_340
*1487 FILLER_0_23_348
*1488 FILLER_0_23_40
*1489 FILLER_0_23_46
*1490 FILLER_0_23_52
*1491 FILLER_0_23_61
*1492 FILLER_0_23_7
*1493 FILLER_0_23_73
*1494 FILLER_0_23_81
*1495 FILLER_0_23_94
*1496 FILLER_0_24_100
*1497 FILLER_0_24_112
*1498 FILLER_0_24_118
*1499 FILLER_0_24_128
*1500 FILLER_0_24_141
*1501 FILLER_0_24_155
*1502 FILLER_0_24_173
*1503 FILLER_0_24_185
*1504 FILLER_0_24_194
*1505 FILLER_0_24_233
*1506 FILLER_0_24_244
*1507 FILLER_0_24_253
*1508 FILLER_0_24_27
*1509 FILLER_0_24_287
*1510 FILLER_0_24_299
*1511 FILLER_0_24_3
*1512 FILLER_0_24_317
*1513 FILLER_0_24_350
*1514 FILLER_0_24_69
*1515 FILLER_0_24_81
*1516 FILLER_0_25_107
*1517 FILLER_0_25_111
*1518 FILLER_0_25_118
*1519 FILLER_0_25_122
*1520 FILLER_0_25_135
*1521 FILLER_0_25_141
*1522 FILLER_0_25_15
*1523 FILLER_0_25_169
*1524 FILLER_0_25_175
*1525 FILLER_0_25_181
*1526 FILLER_0_25_222
*1527 FILLER_0_25_225
*1528 FILLER_0_25_237
*1529 FILLER_0_25_25
*1530 FILLER_0_25_265
*1531 FILLER_0_25_277
*1532 FILLER_0_25_297
*1533 FILLER_0_25_3
*1534 FILLER_0_25_33
*1535 FILLER_0_25_335
*1536 FILLER_0_25_345
*1537 FILLER_0_25_39
*1538 FILLER_0_25_73
*1539 FILLER_0_25_85
*1540 FILLER_0_25_93
*1541 FILLER_0_26_111
*1542 FILLER_0_26_119
*1543 FILLER_0_26_15
*1544 FILLER_0_26_153
*1545 FILLER_0_26_167
*1546 FILLER_0_26_175
*1547 FILLER_0_26_186
*1548 FILLER_0_26_194
*1549 FILLER_0_26_197
*1550 FILLER_0_26_21
*1551 FILLER_0_26_226
*1552 FILLER_0_26_232
*1553 FILLER_0_26_244
*1554 FILLER_0_26_25
*1555 FILLER_0_26_253
*1556 FILLER_0_26_260
*1557 FILLER_0_26_272
*1558 FILLER_0_26_29
*1559 FILLER_0_26_292
*1560 FILLER_0_26_3
*1561 FILLER_0_26_300
*1562 FILLER_0_26_307
*1563 FILLER_0_26_314
*1564 FILLER_0_26_346
*1565 FILLER_0_26_350
*1566 FILLER_0_26_41
*1567 FILLER_0_26_60
*1568 FILLER_0_26_72
*1569 FILLER_0_26_85
*1570 FILLER_0_26_91
*1571 FILLER_0_26_97
*1572 FILLER_0_27_109
*1573 FILLER_0_27_113
*1574 FILLER_0_27_121
*1575 FILLER_0_27_130
*1576 FILLER_0_27_142
*1577 FILLER_0_27_15
*1578 FILLER_0_27_151
*1579 FILLER_0_27_157
*1580 FILLER_0_27_165
*1581 FILLER_0_27_174
*1582 FILLER_0_27_180
*1583 FILLER_0_27_189
*1584 FILLER_0_27_197
*1585 FILLER_0_27_204
*1586 FILLER_0_27_216
*1587 FILLER_0_27_276
*1588 FILLER_0_27_281
*1589 FILLER_0_27_289
*1590 FILLER_0_27_293
*1591 FILLER_0_27_299
*1592 FILLER_0_27_3
*1593 FILLER_0_27_32
*1594 FILLER_0_27_335
*1595 FILLER_0_27_345
*1596 FILLER_0_27_42
*1597 FILLER_0_27_54
*1598 FILLER_0_27_57
*1599 FILLER_0_27_69
*1600 FILLER_0_27_81
*1601 FILLER_0_28_108
*1602 FILLER_0_28_124
*1603 FILLER_0_28_136
*1604 FILLER_0_28_141
*1605 FILLER_0_28_149
*1606 FILLER_0_28_154
*1607 FILLER_0_28_166
*1608 FILLER_0_28_178
*1609 FILLER_0_28_195
*1610 FILLER_0_28_197
*1611 FILLER_0_28_209
*1612 FILLER_0_28_216
*1613 FILLER_0_28_224
*1614 FILLER_0_28_251
*1615 FILLER_0_28_274
*1616 FILLER_0_28_280
*1617 FILLER_0_28_292
*1618 FILLER_0_28_296
*1619 FILLER_0_28_3
*1620 FILLER_0_28_325
*1621 FILLER_0_28_350
*1622 FILLER_0_28_60
*1623 FILLER_0_28_79
*1624 FILLER_0_29_102
*1625 FILLER_0_29_11
*1626 FILLER_0_29_113
*1627 FILLER_0_29_137
*1628 FILLER_0_29_149
*1629 FILLER_0_29_156
*1630 FILLER_0_29_167
*1631 FILLER_0_29_169
*1632 FILLER_0_29_181
*1633 FILLER_0_29_190
*1634 FILLER_0_29_210
*1635 FILLER_0_29_220
*1636 FILLER_0_29_225
*1637 FILLER_0_29_238
*1638 FILLER_0_29_256
*1639 FILLER_0_29_295
*1640 FILLER_0_29_3
*1641 FILLER_0_29_303
*1642 FILLER_0_29_330
*1643 FILLER_0_29_335
*1644 FILLER_0_29_346
*1645 FILLER_0_29_350
*1646 FILLER_0_29_39
*1647 FILLER_0_29_57
*1648 FILLER_0_29_65
*1649 FILLER_0_2_107
*1650 FILLER_0_2_139
*1651 FILLER_0_2_141
*1652 FILLER_0_2_15
*1653 FILLER_0_2_175
*1654 FILLER_0_2_187
*1655 FILLER_0_2_194
*1656 FILLER_0_2_212
*1657 FILLER_0_2_216
*1658 FILLER_0_2_256
*1659 FILLER_0_2_280
*1660 FILLER_0_2_29
*1661 FILLER_0_2_292
*1662 FILLER_0_2_3
*1663 FILLER_0_2_304
*1664 FILLER_0_2_61
*1665 FILLER_0_2_69
*1666 FILLER_0_2_90
*1667 FILLER_0_2_99
*1668 FILLER_0_30_102
*1669 FILLER_0_30_106
*1670 FILLER_0_30_141
*1671 FILLER_0_30_192
*1672 FILLER_0_30_213
*1673 FILLER_0_30_229
*1674 FILLER_0_30_237
*1675 FILLER_0_30_243
*1676 FILLER_0_30_251
*1677 FILLER_0_30_253
*1678 FILLER_0_30_260
*1679 FILLER_0_30_290
*1680 FILLER_0_30_3
*1681 FILLER_0_30_302
*1682 FILLER_0_30_309
*1683 FILLER_0_30_350
*1684 FILLER_0_30_49
*1685 FILLER_0_30_61
*1686 FILLER_0_30_68
*1687 FILLER_0_30_82
*1688 FILLER_0_31_111
*1689 FILLER_0_31_121
*1690 FILLER_0_31_139
*1691 FILLER_0_31_147
*1692 FILLER_0_31_166
*1693 FILLER_0_31_177
*1694 FILLER_0_31_189
*1695 FILLER_0_31_222
*1696 FILLER_0_31_237
*1697 FILLER_0_31_249
*1698 FILLER_0_31_261
*1699 FILLER_0_31_269
*1700 FILLER_0_31_278
*1701 FILLER_0_31_289
*1702 FILLER_0_31_3
*1703 FILLER_0_31_317
*1704 FILLER_0_31_325
*1705 FILLER_0_31_345
*1706 FILLER_0_31_48
*1707 FILLER_0_31_57
*1708 FILLER_0_31_7
*1709 FILLER_0_31_99
*1710 FILLER_0_32_103
*1711 FILLER_0_32_11
*1712 FILLER_0_32_137
*1713 FILLER_0_32_141
*1714 FILLER_0_32_158
*1715 FILLER_0_32_170
*1716 FILLER_0_32_182
*1717 FILLER_0_32_194
*1718 FILLER_0_32_197
*1719 FILLER_0_32_201
*1720 FILLER_0_32_237
*1721 FILLER_0_32_243
*1722 FILLER_0_32_270
*1723 FILLER_0_32_278
*1724 FILLER_0_32_286
*1725 FILLER_0_32_290
*1726 FILLER_0_32_3
*1727 FILLER_0_32_302
*1728 FILLER_0_32_309
*1729 FILLER_0_32_318
*1730 FILLER_0_32_324
*1731 FILLER_0_32_344
*1732 FILLER_0_32_350
*1733 FILLER_0_32_51
*1734 FILLER_0_32_82
*1735 FILLER_0_32_91
*1736 FILLER_0_33_100
*1737 FILLER_0_33_109
*1738 FILLER_0_33_113
*1739 FILLER_0_33_121
*1740 FILLER_0_33_136
*1741 FILLER_0_33_145
*1742 FILLER_0_33_15
*1743 FILLER_0_33_169
*1744 FILLER_0_33_181
*1745 FILLER_0_33_193
*1746 FILLER_0_33_205
*1747 FILLER_0_33_222
*1748 FILLER_0_33_241
*1749 FILLER_0_33_249
*1750 FILLER_0_33_262
*1751 FILLER_0_33_277
*1752 FILLER_0_33_281
*1753 FILLER_0_33_289
*1754 FILLER_0_33_3
*1755 FILLER_0_33_300
*1756 FILLER_0_33_308