*SPEF "ieee 1481-1999"
*DESIGN "tt_um_jk2102"
*DATE "11:11:11 Fri 11 11, 1111"
*VENDOR "OpenRCX"
*PROGRAM "Parallel Extraction"
*VERSION "1.0"
*DESIGN_FLOW "NAME_SCOPE LOCAL" "PIN_CAP NONE"
*DIVIDER /
*DELIMITER :
*BUS_DELIMITER []
*T_UNIT 1 NS
*C_UNIT 1 PF
*R_UNIT 1 OHM
*L_UNIT 1 HENRY

*NAME_MAP
*3 clk
*4 ena
*5 rst_n
*6 ui_in[0]
*7 ui_in[1]
*8 ui_in[2]
*9 ui_in[3]
*10 ui_in[4]
*11 ui_in[5]
*12 ui_in[6]
*13 ui_in[7]
*14 uio_in[0]
*15 uio_in[1]
*16 uio_in[2]
*17 uio_in[3]
*18 uio_in[4]
*19 uio_in[5]
*20 uio_in[6]
*21 uio_in[7]
*22 net46
*23 uio_oe[1]
*24 net47
*25 net48
*26 net49
*27 net50
*28 net51
*29 net52
*30 net53
*31 uio_out[1]
*32 net54
*33 net55
*34 net56
*35 net57
*36 net58
*37 net59
*38 uo_out[0]
*39 uo_out[1]
*40 uo_out[2]
*41 uo_out[3]
*42 uo_out[4]
*43 uo_out[5]
*44 uo_out[6]
*45 uo_out[7]
*46 I2C_active
*47 _0000_
*48 _0001_
*49 _0002_
*50 _0003_
*51 _0004_
*52 _0005_
*53 _0006_
*54 _0007_
*55 _0008_
*56 _0009_
*57 _0010_
*58 _0011_
*59 _0012_
*60 _0013_
*61 _0014_
*62 _0015_
*63 _0016_
*64 _0017_
*65 _0018_
*66 _0019_
*67 _0020_
*68 _0021_
*69 _0022_
*70 _0023_
*71 _0024_
*72 _0025_
*73 _0026_
*74 _0027_
*75 _0028_
*76 _0029_
*77 _0030_
*78 _0031_
*79 _0032_
*80 _0033_
*81 _0034_
*82 _0035_
*83 _0036_
*84 _0037_
*85 _0038_
*86 _0039_
*87 _0040_
*88 _0041_
*89 _0042_
*90 _0043_
*91 _0044_
*92 _0045_
*93 _0046_
*94 _0047_
*95 _0048_
*96 _0049_
*97 _0050_
*98 _0051_
*99 _0052_
*100 _0053_
*101 _0054_
*102 _0055_
*103 _0056_
*104 _0057_
*105 _0058_
*106 _0059_
*107 _0060_
*108 _0061_
*109 _0062_
*110 _0063_
*111 _0064_
*112 _0065_
*113 _0066_
*114 _0067_
*115 _0068_
*116 _0069_
*117 _0070_
*118 _0071_
*119 _0072_
*120 _0073_
*121 _0074_
*122 _0075_
*123 _0076_
*124 _0077_
*125 _0078_
*126 _0079_
*127 _0080_
*128 _0081_
*129 _0082_
*130 _0083_
*131 _0084_
*132 _0085_
*133 _0086_
*134 _0087_
*135 _0088_
*136 _0089_
*137 _0090_
*138 _0091_
*139 _0092_
*140 _0093_
*141 _0094_
*142 _0095_
*143 _0096_
*144 _0097_
*145 _0098_
*146 _0099_
*147 _0100_
*148 _0101_
*149 _0102_
*150 _0103_
*151 _0104_
*152 _0105_
*153 _0106_
*154 _0107_
*155 _0108_
*156 _0109_
*157 _0110_
*158 _0111_
*159 _0112_
*160 _0113_
*161 _0114_
*162 _0115_
*163 _0116_
*164 _0117_
*165 _0118_
*166 _0119_
*167 _0120_
*168 _0121_
*169 _0122_
*170 _0123_
*171 _0124_
*172 _0125_
*173 _0126_
*174 _0127_
*175 _0128_
*176 _0129_
*177 _0130_
*178 _0131_
*179 _0132_
*180 _0133_
*181 _0134_
*182 _0135_
*183 _0136_
*184 _0137_
*185 _0138_
*186 _0139_
*187 _0140_
*188 _0141_
*189 _0142_
*190 _0143_
*191 _0144_
*192 _0145_
*193 _0146_
*194 _0147_
*195 _0148_
*196 _0149_
*197 _0150_
*198 _0151_
*199 _0152_
*200 _0153_
*201 _0154_
*202 _0155_
*203 _0156_
*204 _0157_
*205 _0158_
*206 _0159_
*207 _0160_
*208 _0161_
*209 _0162_
*210 _0163_
*211 _0164_
*212 _0165_
*213 _0166_
*214 _0167_
*215 _0168_
*216 _0169_
*217 _0170_
*218 _0171_
*219 _0172_
*220 _0173_
*221 _0174_
*222 _0175_
*223 _0176_
*224 _0177_
*225 _0178_
*226 _0179_
*227 _0180_
*228 _0181_
*229 _0182_
*230 _0183_
*231 _0184_
*232 _0185_
*233 _0186_
*234 _0187_
*235 _0188_
*236 _0189_
*237 _0190_
*238 _0191_
*239 _0192_
*240 _0193_
*241 _0194_
*242 _0195_
*243 _0196_
*244 _0197_
*245 _0198_
*246 _0199_
*247 _0200_
*248 _0201_
*249 _0202_
*250 _0203_
*251 _0204_
*252 _0205_
*253 _0206_
*254 _0207_
*255 _0208_
*256 _0209_
*257 _0210_
*258 _0211_
*259 _0212_
*260 _0213_
*261 _0214_
*262 _0215_
*263 _0216_
*264 _0217_
*265 _0218_
*266 _0219_
*267 _0220_
*268 _0221_
*269 _0222_
*270 _0223_
*271 _0224_
*272 _0225_
*273 _0226_
*274 _0227_
*275 _0228_
*276 _0229_
*277 _0230_
*278 _0231_
*279 _0232_
*280 _0233_
*281 _0234_
*282 _0235_
*283 _0236_
*284 _0237_
*285 _0238_
*286 _0239_
*287 _0240_
*288 _0241_
*289 _0242_
*290 _0243_
*291 _0244_
*292 _0245_
*293 _0246_
*294 _0247_
*295 _0248_
*296 _0249_
*297 _0250_
*298 _0251_
*299 _0252_
*300 _0253_
*301 _0254_
*302 _0255_
*303 _0256_
*304 _0257_
*305 _0258_
*306 _0259_
*307 _0260_
*308 _0261_
*309 _0262_
*310 _0263_
*311 _0264_
*312 _0265_
*313 _0266_
*314 _0267_
*315 _0268_
*316 _0269_
*317 _0270_
*318 _0271_
*319 _0272_
*320 _0273_
*321 _0274_
*322 _0275_
*323 _0276_
*324 _0277_
*325 _0278_
*326 _0279_
*327 _0280_
*328 _0281_
*329 _0282_
*330 _0283_
*331 _0284_
*332 _0285_
*333 _0286_
*334 _0287_
*335 _0288_
*336 _0289_
*337 _0290_
*338 _0291_
*339 _0292_
*340 _0293_
*341 _0294_
*342 _0295_
*343 _0296_
*344 _0297_
*345 _0298_
*346 _0299_
*347 _0300_
*348 _0301_
*349 _0302_
*350 _0303_
*351 _0304_
*352 _0305_
*353 _0306_
*354 _0307_
*355 _0308_
*356 _0309_
*357 _0310_
*358 _0311_
*359 _0312_
*360 _0313_
*361 _0314_
*362 _0315_
*363 _0316_
*364 _0317_
*365 _0318_
*366 _0319_
*367 _0320_
*368 _0321_
*369 _0322_
*370 _0323_
*371 _0324_
*372 _0325_
*373 _0326_
*374 _0327_
*375 _0328_
*376 _0329_
*377 _0330_
*378 _0331_
*379 _0332_
*380 _0333_
*381 _0334_
*382 _0335_
*383 _0336_
*384 _0337_
*385 _0338_
*386 _0339_
*387 _0340_
*388 _0341_
*389 _0342_
*390 _0343_
*391 _0344_
*392 _0345_
*393 _0346_
*394 _0347_
*395 _0348_
*396 _0349_
*397 _0350_
*398 _0351_
*399 _0352_
*400 _0353_
*401 _0354_
*402 _0355_
*403 _0356_
*404 _0357_
*405 _0358_
*406 _0359_
*407 _0360_
*408 _0361_
*409 _0362_
*410 _0363_
*411 _0364_
*412 _0365_
*413 _0366_
*414 _0367_
*415 _0368_
*416 _0369_
*417 _0370_
*418 _0371_
*419 _0372_
*420 _0373_
*421 _0374_
*422 _0375_
*423 _0376_
*424 _0377_
*425 _0378_
*426 _0379_
*427 _0380_
*428 _0381_
*429 _0382_
*430 _0383_
*431 _0384_
*432 _0385_
*433 _0386_
*434 _0387_
*435 _0388_
*436 _0389_
*437 _0390_
*438 _0391_
*439 _0392_
*440 _0393_
*441 _0394_
*442 _0395_
*443 _0396_
*444 _0397_
*445 _0398_
*446 _0399_
*447 _0400_
*448 _0401_
*449 _0402_
*450 _0403_
*451 _0404_
*452 _0405_
*453 _0406_
*454 _0407_
*455 _0408_
*456 _0409_
*457 _0410_
*458 _0411_
*459 _0412_
*460 _0413_
*461 _0414_
*462 _0415_
*463 _0416_
*464 _0417_
*465 _0418_
*466 _0419_
*467 _0420_
*468 _0421_
*469 _0422_
*470 _0423_
*471 _0424_
*472 _0425_
*473 _0426_
*474 _0427_
*475 _0428_
*476 _0429_
*477 _0430_
*478 _0431_
*479 _0432_
*480 _0433_
*481 _0434_
*482 _0435_
*483 _0436_
*484 _0437_
*485 _0438_
*486 _0439_
*487 _0440_
*488 _0441_
*489 _0442_
*490 _0443_
*491 _0444_
*492 _0445_
*493 _0446_
*494 _0447_
*495 _0448_
*496 _0449_
*497 _0450_
*498 _0451_
*499 _0452_
*500 _0453_
*501 _0454_
*502 _0455_
*503 _0456_
*504 _0457_
*505 _0458_
*506 _0459_
*507 _0460_
*508 _0461_
*509 _0462_
*510 _0463_
*511 _0464_
*512 _0465_
*513 _0466_
*514 _0467_
*515 _0468_
*516 _0469_
*517 _0470_
*518 _0471_
*519 _0472_
*520 _0473_
*521 _0474_
*522 _0475_
*523 _0476_
*524 _0477_
*525 _0478_
*526 _0479_
*527 _0480_
*528 _0481_
*529 _0482_
*530 _0483_
*531 _0484_
*532 _0485_
*533 _0486_
*534 _0487_
*535 _0488_
*536 _0489_
*537 _0490_
*538 _0491_
*539 _0492_
*540 _0493_
*541 _0494_
*542 _0495_
*543 _0496_
*544 _0497_
*545 _0498_
*546 _0499_
*547 _0500_
*548 _0501_
*549 _0502_
*550 _0503_
*551 _0504_
*552 _0505_
*553 _0506_
*554 _0507_
*555 _0508_
*556 _0509_
*557 _0510_
*558 _0511_
*559 _0512_
*560 _0513_
*561 _0514_
*562 _0515_
*563 _0516_
*564 _0517_
*565 _0518_
*566 _0519_
*567 _0520_
*568 _0521_
*569 _0522_
*570 _0523_
*571 _0524_
*572 _0525_
*573 _0526_
*574 _0527_
*575 _0528_
*576 _0529_
*577 _0530_
*578 _0531_
*579 _0532_
*580 _0533_
*581 _0534_
*582 _0535_
*583 _0536_
*584 _0537_
*585 _0538_
*586 _0539_
*587 _0540_
*588 _0541_
*589 _0542_
*590 _0543_
*591 _0544_
*592 _0545_
*593 _0546_
*594 _0547_
*595 _0548_
*596 _0549_
*597 _0550_
*598 _0551_
*599 _0552_
*600 _0553_
*601 _0554_
*602 _0555_
*603 _0556_
*604 _0557_
*605 _0558_
*606 _0559_
*607 _0560_
*608 _0561_
*609 _0562_
*610 _0563_
*611 _0564_
*612 _0565_
*613 _0566_
*614 _0567_
*615 _0568_
*616 _0569_
*617 _0570_
*618 _0571_
*619 _0572_
*620 _0573_
*621 _0574_
*622 _0575_
*623 _0576_
*624 _0577_
*625 _0578_
*626 _0579_
*627 _0580_
*628 _0581_
*629 _0582_
*630 _0583_
*631 _0584_
*632 _0585_
*633 _0586_
*634 _0587_
*635 _0588_
*636 _0589_
*637 _0590_
*638 _0591_
*639 _0592_
*640 _0593_
*641 _0594_
*642 _0595_
*643 _0596_
*644 _0597_
*645 _0598_
*646 _0599_
*647 _0600_
*648 _0601_
*649 _0602_
*650 _0603_
*651 _0604_
*652 _0605_
*653 _0606_
*654 _0607_
*655 _0608_
*656 _0609_
*657 _0610_
*658 _0611_
*659 _0612_
*660 _0613_
*661 _0614_
*662 _0615_
*663 _0616_
*664 _0617_
*665 _0618_
*666 _0619_
*667 _0620_
*668 _0621_
*669 _0622_
*670 _0623_
*671 _0624_
*672 _0625_
*673 _0626_
*674 _0627_
*675 _0628_
*676 _0629_
*677 _0630_
*678 _0631_
*679 _0632_
*680 _0633_
*681 _0634_
*682 _0635_
*683 _0636_
*684 _0637_
*685 _0638_
*686 _0639_
*687 _0640_
*688 _0641_
*689 _0642_
*690 _0643_
*691 _0644_
*692 _0645_
*693 _0646_
*694 _0647_
*695 _0648_
*696 _0649_
*697 _0650_
*698 _0651_
*699 _0652_
*700 _0653_
*701 _0654_
*702 _0655_
*703 _0656_
*704 _0657_
*705 _0658_
*706 _0659_
*707 _0660_
*708 _0661_
*709 _0662_
*710 _0663_
*711 _0664_
*712 clk_div_inst\.clk_out
*713 clk_div_inst\.counter\[0\]
*714 clk_div_inst\.counter\[10\]
*715 clk_div_inst\.counter\[11\]
*716 clk_div_inst\.counter\[12\]
*717 clk_div_inst\.counter\[13\]
*718 clk_div_inst\.counter\[14\]
*719 clk_div_inst\.counter\[15\]
*720 clk_div_inst\.counter\[16\]
*721 clk_div_inst\.counter\[17\]
*722 clk_div_inst\.counter\[18\]
*723 clk_div_inst\.counter\[19\]
*724 clk_div_inst\.counter\[1\]
*725 clk_div_inst\.counter\[20\]
*726 clk_div_inst\.counter\[2\]
*727 clk_div_inst\.counter\[3\]
*728 clk_div_inst\.counter\[4\]
*729 clk_div_inst\.counter\[5\]
*730 clk_div_inst\.counter\[6\]
*731 clk_div_inst\.counter\[7\]
*732 clk_div_inst\.counter\[8\]
*733 clk_div_inst\.counter\[9\]
*734 clk_div_inst\.rst_n
*735 clk_div_inst\.sel\[0\]
*736 clk_div_inst\.sel\[1\]
*737 clk_div_inst\.sel\[2\]
*738 clk_div_inst\.sel\[3\]
*739 clk_div_inst\.sel\[4\]
*740 clk_div_inst\.sel_r\[0\]
*741 clk_div_inst\.sel_r\[1\]
*742 clk_div_inst\.sel_r\[2\]
*743 clk_div_inst\.sel_r\[3\]
*744 clk_div_inst\.sel_r\[4\]
*745 clknet_0_clk
*746 clknet_1_0__leaf_clk
*747 clknet_1_1__leaf_clk
*748 i2c_slave_inst\.bit_count\[0\]
*749 i2c_slave_inst\.bit_count\[1\]
*750 i2c_slave_inst\.bit_count\[2\]
*751 i2c_slave_inst\.data_in\[0\]
*752 i2c_slave_inst\.data_in\[1\]
*753 i2c_slave_inst\.data_in\[2\]
*754 i2c_slave_inst\.data_in\[3\]
*755 i2c_slave_inst\.data_in\[4\]
*756 i2c_slave_inst\.data_in\[5\]
*757 i2c_slave_inst\.data_in\[6\]
*758 i2c_slave_inst\.data_in\[7\]
*759 i2c_slave_inst\.data_out\[0\]
*760 i2c_slave_inst\.data_out\[1\]
*761 i2c_slave_inst\.data_out\[2\]
*762 i2c_slave_inst\.data_out\[3\]
*763 i2c_slave_inst\.data_out\[4\]
*764 i2c_slave_inst\.data_out\[5\]
*765 i2c_slave_inst\.data_out\[6\]
*766 i2c_slave_inst\.data_out\[7\]
*767 i2c_slave_inst\.reg_addr_or_data
*768 i2c_slave_inst\.reg_data_addr\[0\]
*769 i2c_slave_inst\.reg_data_addr\[1\]
*770 i2c_slave_inst\.reg_data_addr\[2\]
*771 i2c_slave_inst\.reg_data_addr\[3\]
*772 i2c_slave_inst\.reg_data_out\[0\]
*773 i2c_slave_inst\.reg_data_out\[1\]
*774 i2c_slave_inst\.reg_data_out\[2\]
*775 i2c_slave_inst\.reg_data_out\[3\]
*776 i2c_slave_inst\.reg_data_out\[4\]
*777 i2c_slave_inst\.reg_data_out\[5\]
*778 i2c_slave_inst\.reg_data_out\[6\]
*779 i2c_slave_inst\.reg_data_out\[7\]
*780 i2c_slave_inst\.reg_write
*781 i2c_slave_inst\.sda_out
*782 i2c_slave_inst\.start_pattern
*783 i2c_slave_inst\.state\[0\]
*784 i2c_slave_inst\.state\[1\]
*785 i2c_slave_inst\.state\[2\]
*786 i2c_slave_inst\.stop_pattern
*787 net1
*788 net10
*789 net11
*790 net12
*791 net13
*792 net14
*793 net15
*794 net16
*795 net17
*796 net18
*797 net19
*798 net2
*799 net20
*800 net21
*801 net22
*802 net23
*803 net24
*804 net25
*805 net26
*806 net27
*807 net28
*808 net29
*809 net3
*810 net30
*811 net31
*812 net32
*813 net33
*814 net34
*815 net35
*816 net36
*817 net37
*818 net38
*819 net39
*820 net4
*821 net40
*822 net41
*823 net42
*824 net43
*825 net44
*826 net45
*827 net5
*828 net6
*829 net60
*830 net61
*831 net62
*832 net63
*833 net64
*834 net65
*835 net66
*836 net67
*837 net68
*838 net69
*839 net7
*840 net70
*841 net71
*842 net72
*843 net73
*844 net8
*845 net9
*846 pulse_counter_inst\.count\[0\]
*847 pulse_counter_inst\.count\[1\]
*848 pulse_counter_inst\.count\[2\]
*849 pulse_counter_inst\.count\[3\]
*850 pulse_counter_inst\.count\[4\]
*851 pulse_counter_inst\.count\[5\]
*852 pulse_counter_inst\.count\[6\]
*853 pulse_counter_inst\.count\[7\]
*854 pulse_counter_inst\.done
*855 pulse_counter_inst\.in_pulse
*856 pulse_counter_inst\.load_count\[0\]
*857 pulse_counter_inst\.load_count\[1\]
*858 pulse_counter_inst\.load_count\[2\]
*859 pulse_counter_inst\.load_count\[3\]
*860 pulse_counter_inst\.load_count\[4\]
*861 pulse_counter_inst\.load_count\[5\]
*862 pulse_counter_inst\.load_count\[6\]
*863 pulse_counter_inst\.load_count\[7\]
*864 pulse_counter_inst\.prev_pulse
*865 pulse_gen_inst\.counter\[0\]
*866 pulse_gen_inst\.counter\[10\]
*867 pulse_gen_inst\.counter\[11\]
*868 pulse_gen_inst\.counter\[12\]
*869 pulse_gen_inst\.counter\[13\]
*870 pulse_gen_inst\.counter\[1\]
*871 pulse_gen_inst\.counter\[2\]
*872 pulse_gen_inst\.counter\[3\]
*873 pulse_gen_inst\.counter\[4\]
*874 pulse_gen_inst\.counter\[5\]
*875 pulse_gen_inst\.counter\[6\]
*876 pulse_gen_inst\.counter\[7\]
*877 pulse_gen_inst\.counter\[8\]
*878 pulse_gen_inst\.counter\[9\]
*879 pulse_gen_inst\.pulse_period\[0\]
*880 pulse_gen_inst\.pulse_period\[10\]
*881 pulse_gen_inst\.pulse_period\[11\]
*882 pulse_gen_inst\.pulse_period\[12\]
*883 pulse_gen_inst\.pulse_period\[13\]
*884 pulse_gen_inst\.pulse_period\[1\]
*885 pulse_gen_inst\.pulse_period\[2\]
*886 pulse_gen_inst\.pulse_period\[3\]
*887 pulse_gen_inst\.pulse_period\[4\]
*888 pulse_gen_inst\.pulse_period\[5\]
*889 pulse_gen_inst\.pulse_period\[6\]
*890 pulse_gen_inst\.pulse_period\[7\]
*891 pulse_gen_inst\.pulse_period\[8\]
*892 pulse_gen_inst\.pulse_period\[9\]
*893 pulse_gen_inst\.pulse_period_r\[0\]
*894 pulse_gen_inst\.pulse_period_r\[10\]
*895 pulse_gen_inst\.pulse_period_r\[11\]
*896 pulse_gen_inst\.pulse_period_r\[12\]
*897 pulse_gen_inst\.pulse_period_r\[13\]
*898 pulse_gen_inst\.pulse_period_r\[1\]
*899 pulse_gen_inst\.pulse_period_r\[2\]
*900 pulse_gen_inst\.pulse_period_r\[3\]
*901 pulse_gen_inst\.pulse_period_r\[4\]
*902 pulse_gen_inst\.pulse_period_r\[5\]
*903 pulse_gen_inst\.pulse_period_r\[6\]
*904 pulse_gen_inst\.pulse_period_r\[7\]
*905 pulse_gen_inst\.pulse_period_r\[8\]
*906 pulse_gen_inst\.pulse_period_r\[9\]
*907 pulse_gen_inst\.pulse_width\[0\]
*908 pulse_gen_inst\.pulse_width\[10\]
*909 pulse_gen_inst\.pulse_width\[11\]
*910 pulse_gen_inst\.pulse_width\[12\]
*911 pulse_gen_inst\.pulse_width\[13\]
*912 pulse_gen_inst\.pulse_width\[1\]
*913 pulse_gen_inst\.pulse_width\[2\]
*914 pulse_gen_inst\.pulse_width\[3\]
*915 pulse_gen_inst\.pulse_width\[4\]
*916 pulse_gen_inst\.pulse_width\[5\]
*917 pulse_gen_inst\.pulse_width\[6\]
*918 pulse_gen_inst\.pulse_width\[7\]
*919 pulse_gen_inst\.pulse_width\[8\]
*920 pulse_gen_inst\.pulse_width\[9\]
*921 pulse_gen_inst\.pulse_width_r\[0\]
*922 pulse_gen_inst\.pulse_width_r\[10\]
*923 pulse_gen_inst\.pulse_width_r\[11\]
*924 pulse_gen_inst\.pulse_width_r\[12\]
*925 pulse_gen_inst\.pulse_width_r\[13\]
*926 pulse_gen_inst\.pulse_width_r\[1\]
*927 pulse_gen_inst\.pulse_width_r\[2\]
*928 pulse_gen_inst\.pulse_width_r\[3\]
*929 pulse_gen_inst\.pulse_width_r\[4\]
*930 pulse_gen_inst\.pulse_width_r\[5\]
*931 pulse_gen_inst\.pulse_width_r\[6\]
*932 pulse_gen_inst\.pulse_width_r\[7\]
*933 pulse_gen_inst\.pulse_width_r\[8\]
*934 pulse_gen_inst\.pulse_width_r\[9\]
*935 register_map_inst\.COUNT_DONE_L\[0\]
*936 register_map_inst\.COUNT_DONE_L\[1\]
*937 register_map_inst\.COUNT_DONE_L\[2\]
*938 register_map_inst\.COUNT_DONE_L\[3\]
*939 register_map_inst\.COUNT_DONE_L\[4\]
*940 register_map_inst\.COUNT_DONE_L\[5\]
*941 register_map_inst\.COUNT_DONE_L\[6\]
*942 register_map_inst\.COUNT_DONE_L\[7\]
*943 register_map_inst\.DONE
*944 register_map_inst\.RUN
*945 FILLER_0_0_109
*946 FILLER_0_0_113
*947 FILLER_0_0_125
*948 FILLER_0_0_137
*949 FILLER_0_0_141
*950 FILLER_0_0_15
*951 FILLER_0_0_153
*952 FILLER_0_0_165
*953 FILLER_0_0_169
*954 FILLER_0_0_181
*955 FILLER_0_0_193
*956 FILLER_0_0_197
*957 FILLER_0_0_205
*958 FILLER_0_0_209
*959 FILLER_0_0_221
*960 FILLER_0_0_225
*961 FILLER_0_0_237
*962 FILLER_0_0_249
*963 FILLER_0_0_256
*964 FILLER_0_0_268
*965 FILLER_0_0_27
*966 FILLER_0_0_281
*967 FILLER_0_0_29
*968 FILLER_0_0_290
*969 FILLER_0_0_3
*970 FILLER_0_0_302
*971 FILLER_0_0_309
*972 FILLER_0_0_321
*973 FILLER_0_0_333
*974 FILLER_0_0_337
*975 FILLER_0_0_349
*976 FILLER_0_0_41
*977 FILLER_0_0_53
*978 FILLER_0_0_57
*979 FILLER_0_0_69
*980 FILLER_0_0_81
*981 FILLER_0_0_85
*982 FILLER_0_0_97
*983 FILLER_0_10_109
*984 FILLER_0_10_117
*985 FILLER_0_10_127
*986 FILLER_0_10_139
*987 FILLER_0_10_141
*988 FILLER_0_10_171
*989 FILLER_0_10_183
*990 FILLER_0_10_194
*991 FILLER_0_10_206
*992 FILLER_0_10_218
*993 FILLER_0_10_245
*994 FILLER_0_10_251
*995 FILLER_0_10_294
*996 FILLER_0_10_3
*997 FILLER_0_10_307
*998 FILLER_0_10_312
*999 FILLER_0_10_317
*1000 FILLER_0_10_343
*1001 FILLER_0_10_38
*1002 FILLER_0_10_53
*1003 FILLER_0_10_61
*1004 FILLER_0_10_7
*1005 FILLER_0_10_80
*1006 FILLER_0_10_93
*1007 FILLER_0_11_108
*1008 FILLER_0_11_113
*1009 FILLER_0_11_134
*1010 FILLER_0_11_146
*1011 FILLER_0_11_158
*1012 FILLER_0_11_166
*1013 FILLER_0_11_169
*1014 FILLER_0_11_18
*1015 FILLER_0_11_181
*1016 FILLER_0_11_214
*1017 FILLER_0_11_22
*1018 FILLER_0_11_245
*1019 FILLER_0_11_257
*1020 FILLER_0_11_269
*1021 FILLER_0_11_277
*1022 FILLER_0_11_3
*1023 FILLER_0_11_304
*1024 FILLER_0_11_316
*1025 FILLER_0_11_32
*1026 FILLER_0_11_324
*1027 FILLER_0_11_334
*1028 FILLER_0_11_337
*1029 FILLER_0_11_349
*1030 FILLER_0_11_44
*1031 FILLER_0_11_57
*1032 FILLER_0_11_72
*1033 FILLER_0_11_84
*1034 FILLER_0_11_96
*1035 FILLER_0_12_100
*1036 FILLER_0_12_106
*1037 FILLER_0_12_138
*1038 FILLER_0_12_141
*1039 FILLER_0_12_149
*1040 FILLER_0_12_170
*1041 FILLER_0_12_182
*1042 FILLER_0_12_190
*1043 FILLER_0_12_217
*1044 FILLER_0_12_249
*1045 FILLER_0_12_253
*1046 FILLER_0_12_3
*1047 FILLER_0_12_32
*1048 FILLER_0_12_329
*1049 FILLER_0_12_341
*1050 FILLER_0_12_349
*1051 FILLER_0_12_36
*1052 FILLER_0_12_49
*1053 FILLER_0_12_64
*1054 FILLER_0_12_7
*1055 FILLER_0_12_77
*1056 FILLER_0_12_83
*1057 FILLER_0_12_85
*1058 FILLER_0_13_104
*1059 FILLER_0_13_11
*1060 FILLER_0_13_113
*1061 FILLER_0_13_147
*1062 FILLER_0_13_178
*1063 FILLER_0_13_213
*1064 FILLER_0_13_221
*1065 FILLER_0_13_225
*1066 FILLER_0_13_235
*1067 FILLER_0_13_247
*1068 FILLER_0_13_259
*1069 FILLER_0_13_281
*1070 FILLER_0_13_293
*1071 FILLER_0_13_3
*1072 FILLER_0_13_316
*1073 FILLER_0_13_331
*1074 FILLER_0_13_335
*1075 FILLER_0_13_344
*1076 FILLER_0_13_35
*1077 FILLER_0_13_350
*1078 FILLER_0_13_47
*1079 FILLER_0_13_51
*1080 FILLER_0_13_77
*1081 FILLER_0_14_111
*1082 FILLER_0_14_119
*1083 FILLER_0_14_141
*1084 FILLER_0_14_153
*1085 FILLER_0_14_170
*1086 FILLER_0_14_182
*1087 FILLER_0_14_206
*1088 FILLER_0_14_218
*1089 FILLER_0_14_226
*1090 FILLER_0_14_249
*1091 FILLER_0_14_253
*1092 FILLER_0_14_265
*1093 FILLER_0_14_289
*1094 FILLER_0_14_29
*1095 FILLER_0_14_3
*1096 FILLER_0_14_301
*1097 FILLER_0_14_327
*1098 FILLER_0_14_348
*1099 FILLER_0_14_48
*1100 FILLER_0_14_7
*1101 FILLER_0_14_71
*1102 FILLER_0_14_79
*1103 FILLER_0_15_105
*1104 FILLER_0_15_11
*1105 FILLER_0_15_111
*1106 FILLER_0_15_113
*1107 FILLER_0_15_160
*1108 FILLER_0_15_169
*1109 FILLER_0_15_181
*1110 FILLER_0_15_189
*1111 FILLER_0_15_193
*1112 FILLER_0_15_205
*1113 FILLER_0_15_217
*1114 FILLER_0_15_223
*1115 FILLER_0_15_225
*1116 FILLER_0_15_254
*1117 FILLER_0_15_266
*1118 FILLER_0_15_278
*1119 FILLER_0_15_281
*1120 FILLER_0_15_293
*1121 FILLER_0_15_3
*1122 FILLER_0_15_317
*1123 FILLER_0_15_52
*1124 FILLER_0_15_60
*1125 FILLER_0_15_70
*1126 FILLER_0_16_122
*1127 FILLER_0_16_128
*1128 FILLER_0_16_138
*1129 FILLER_0_16_141
*1130 FILLER_0_16_15
*1131 FILLER_0_16_155
*1132 FILLER_0_16_167
*1133 FILLER_0_16_175
*1134 FILLER_0_16_218
*1135 FILLER_0_16_23
*1136 FILLER_0_16_253
*1137 FILLER_0_16_257
*1138 FILLER_0_16_27
*1139 FILLER_0_16_278
*1140 FILLER_0_16_29
*1141 FILLER_0_16_290
*1142 FILLER_0_16_298
*1143 FILLER_0_16_3
*1144 FILLER_0_16_349
*1145 FILLER_0_16_41
*1146 FILLER_0_16_53
*1147 FILLER_0_16_64
*1148 FILLER_0_16_75
*1149 FILLER_0_16_79
*1150 FILLER_0_16_83
*1151 FILLER_0_16_94
*1152 FILLER_0_17_101
*1153 FILLER_0_17_105
*1154 FILLER_0_17_109
*1155 FILLER_0_17_122
*1156 FILLER_0_17_134
*1157 FILLER_0_17_142
*1158 FILLER_0_17_146
*1159 FILLER_0_17_152
*1160 FILLER_0_17_165
*1161 FILLER_0_17_175
*1162 FILLER_0_17_214
*1163 FILLER_0_17_222
*1164 FILLER_0_17_225
*1165 FILLER_0_17_229
*1166 FILLER_0_17_258
*1167 FILLER_0_17_281
*1168 FILLER_0_17_293
*1169 FILLER_0_17_3
*1170 FILLER_0_17_308
*1171 FILLER_0_17_314
*1172 FILLER_0_17_329
*1173 FILLER_0_17_44
*1174 FILLER_0_17_77
*1175 FILLER_0_17_89
*1176 FILLER_0_18_130
*1177 FILLER_0_18_138
*1178 FILLER_0_18_191
*1179 FILLER_0_18_195
*1180 FILLER_0_18_215
*1181 FILLER_0_18_236
*1182 FILLER_0_18_242
*1183 FILLER_0_18_279
*1184 FILLER_0_18_291
*1185 FILLER_0_18_3
*1186 FILLER_0_18_303
*1187 FILLER_0_18_307
*1188 FILLER_0_18_309
*1189 FILLER_0_18_318
*1190 FILLER_0_18_330
*1191 FILLER_0_18_342
*1192 FILLER_0_18_350
*1193 FILLER_0_18_41
*1194 FILLER_0_18_53
*1195 FILLER_0_18_7
*1196 FILLER_0_18_77
*1197 FILLER_0_18_83
*1198 FILLER_0_18_91
*1199 FILLER_0_18_97
*1200 FILLER_0_19_103
*1201 FILLER_0_19_130
*1202 FILLER_0_19_142
*1203 FILLER_0_19_162
*1204 FILLER_0_19_173
*1205 FILLER_0_19_181
*1206 FILLER_0_19_189
*1207 FILLER_0_19_201
*1208 FILLER_0_19_214
*1209 FILLER_0_19_222
*1210 FILLER_0_19_225
*1211 FILLER_0_19_262
*1212 FILLER_0_19_274
*1213 FILLER_0_19_281
*1214 FILLER_0_19_3
*1215 FILLER_0_19_303
*1216 FILLER_0_19_337
*1217 FILLER_0_19_349
*1218 FILLER_0_19_47
*1219 FILLER_0_19_55
*1220 FILLER_0_19_57
*1221 FILLER_0_19_99
*1222 FILLER_0_1_105
*1223 FILLER_0_1_109
*1224 FILLER_0_1_120
*1225 FILLER_0_1_132
*1226 FILLER_0_1_15
*1227 FILLER_0_1_156
*1228 FILLER_0_1_169
*1229 FILLER_0_1_197
*1230 FILLER_0_1_225
*1231 FILLER_0_1_237
*1232 FILLER_0_1_241
*1233 FILLER_0_1_268
*1234 FILLER_0_1_27
*1235 FILLER_0_1_281
*1236 FILLER_0_1_3
*1237 FILLER_0_1_309
*1238 FILLER_0_1_324
*1239 FILLER_0_1_337
*1240 FILLER_0_1_349
*1241 FILLER_0_1_39
*1242 FILLER_0_1_51
*1243 FILLER_0_1_55
*1244 FILLER_0_1_77
*1245 FILLER_0_1_99
*1246 FILLER_0_20_121
*1247 FILLER_0_20_133
*1248 FILLER_0_20_139
*1249 FILLER_0_20_141
*1250 FILLER_0_20_15
*1251 FILLER_0_20_153
*1252 FILLER_0_20_175
*1253 FILLER_0_20_187
*1254 FILLER_0_20_195
*1255 FILLER_0_20_197
*1256 FILLER_0_20_203
*1257 FILLER_0_20_209
*1258 FILLER_0_20_230
*1259 FILLER_0_20_241
*1260 FILLER_0_20_250
*1261 FILLER_0_20_256
*1262 FILLER_0_20_26
*1263 FILLER_0_20_268
*1264 FILLER_0_20_3
*1265 FILLER_0_20_301
*1266 FILLER_0_20_307
*1267 FILLER_0_20_309
*1268 FILLER_0_20_317
*1269 FILLER_0_20_325
*1270 FILLER_0_20_348
*1271 FILLER_0_20_38
*1272 FILLER_0_20_50
*1273 FILLER_0_20_58
*1274 FILLER_0_20_64
*1275 FILLER_0_20_72
*1276 FILLER_0_20_78
*1277 FILLER_0_20_89
*1278 FILLER_0_21_102
*1279 FILLER_0_21_109
*1280 FILLER_0_21_121
*1281 FILLER_0_21_129
*1282 FILLER_0_21_15
*1283 FILLER_0_21_154
*1284 FILLER_0_21_163
*1285 FILLER_0_21_167
*1286 FILLER_0_21_178
*1287 FILLER_0_21_189
*1288 FILLER_0_21_213
*1289 FILLER_0_21_221
*1290 FILLER_0_21_225
*1291 FILLER_0_21_231
*1292 FILLER_0_21_261
*1293 FILLER_0_21_273
*1294 FILLER_0_21_278
*1295 FILLER_0_21_281
*1296 FILLER_0_21_3
*1297 FILLER_0_21_311
*1298 FILLER_0_21_340
*1299 FILLER_0_21_348
*1300 FILLER_0_21_38
*1301 FILLER_0_21_42
*1302 FILLER_0_21_52
*1303 FILLER_0_21_77
*1304 FILLER_0_21_85
*1305 FILLER_0_21_96
*1306 FILLER_0_22_105
*1307 FILLER_0_22_117
*1308 FILLER_0_22_136
*1309 FILLER_0_22_150
*1310 FILLER_0_22_180
*1311 FILLER_0_22_192
*1312 FILLER_0_22_218
*1313 FILLER_0_22_273
*1314 FILLER_0_22_285
*1315 FILLER_0_22_29
*1316 FILLER_0_22_3
*1317 FILLER_0_22_305
*1318 FILLER_0_22_309
*1319 FILLER_0_22_321
*1320 FILLER_0_22_344
*1321 FILLER_0_22_350
*1322 FILLER_0_22_42
*1323 FILLER_0_22_54
*1324 FILLER_0_22_62
*1325 FILLER_0_22_7
*1326 FILLER_0_23_104
*1327 FILLER_0_23_145
*1328 FILLER_0_23_178
*1329 FILLER_0_23_190
*1330 FILLER_0_23_198
*1331 FILLER_0_23_217
*1332 FILLER_0_23_225
*1333 FILLER_0_23_271
*1334 FILLER_0_23_275
*1335 FILLER_0_23_279
*1336 FILLER_0_23_281
*1337 FILLER_0_23_285
*1338 FILLER_0_23_299
*1339 FILLER_0_23_3
*1340 FILLER_0_23_307
*1341 FILLER_0_23_315
*1342 FILLER_0_23_329
*1343 FILLER_0_23_335
*1344 FILLER_0_23_337
*1345 FILLER_0_23_349
*1346 FILLER_0_23_37
*1347 FILLER_0_23_41
*1348 FILLER_0_23_51
*1349 FILLER_0_23_55
*1350 FILLER_0_23_57
*1351 FILLER_0_23_64
*1352 FILLER_0_23_74
*1353 FILLER_0_23_86
*1354 FILLER_0_23_92
*1355 FILLER_0_24_106
*1356 FILLER_0_24_114
*1357 FILLER_0_24_119
*1358 FILLER_0_24_141
*1359 FILLER_0_24_148
*1360 FILLER_0_24_15
*1361 FILLER_0_24_160
*1362 FILLER_0_24_172
*1363 FILLER_0_24_184
*1364 FILLER_0_24_217
*1365 FILLER_0_24_247
*1366 FILLER_0_24_251
*1367 FILLER_0_24_253
*1368 FILLER_0_24_265
*1369 FILLER_0_24_284
*1370 FILLER_0_24_293
*1371 FILLER_0_24_3
*1372 FILLER_0_24_302
*1373 FILLER_0_24_326
*1374 FILLER_0_24_350
*1375 FILLER_0_24_38
*1376 FILLER_0_24_50
*1377 FILLER_0_24_76
*1378 FILLER_0_24_81
*1379 FILLER_0_24_94
*1380 FILLER_0_25_100
*1381 FILLER_0_25_113
*1382 FILLER_0_25_125
*1383 FILLER_0_25_139
*1384 FILLER_0_25_15
*1385 FILLER_0_25_152
*1386 FILLER_0_25_161
*1387 FILLER_0_25_183
*1388 FILLER_0_25_195
*1389 FILLER_0_25_199
*1390 FILLER_0_25_211
*1391 FILLER_0_25_223
*1392 FILLER_0_25_225
*1393 FILLER_0_25_237
*1394 FILLER_0_25_249
*1395 FILLER_0_25_267
*1396 FILLER_0_25_279
*1397 FILLER_0_25_281
*1398 FILLER_0_25_285
*1399 FILLER_0_25_3
*1400 FILLER_0_25_312
*1401 FILLER_0_25_324
*1402 FILLER_0_25_337
*1403 FILLER_0_25_349
*1404 FILLER_0_25_43
*1405 FILLER_0_25_55
*1406 FILLER_0_25_57
*1407 FILLER_0_26_106
*1408 FILLER_0_26_118
*1409 FILLER_0_26_122
*1410 FILLER_0_26_131
*1411 FILLER_0_26_139
*1412 FILLER_0_26_141
*1413 FILLER_0_26_15
*1414 FILLER_0_26_157
*1415 FILLER_0_26_167
*1416 FILLER_0_26_181
*1417 FILLER_0_26_195
*1418 FILLER_0_26_226
*1419 FILLER_0_26_238
*1420 FILLER_0_26_24
*1421 FILLER_0_26_266
*1422 FILLER_0_26_278
*1423 FILLER_0_26_282
*1424 FILLER_0_26_286
*1425 FILLER_0_26_299
*1426 FILLER_0_26_3
*1427 FILLER_0_26_307
*1428 FILLER_0_26_316
*1429 FILLER_0_26_324
*1430 FILLER_0_26_336
*1431 FILLER_0_26_348
*1432 FILLER_0_26_56
*1433 FILLER_0_26_94
*1434 FILLER_0_27_101
*1435 FILLER_0_27_133
*1436 FILLER_0_27_166
*1437 FILLER_0_27_177
*1438 FILLER_0_27_185
*1439 FILLER_0_27_216
*1440 FILLER_0_27_272
*1441 FILLER_0_27_281
*1442 FILLER_0_27_288
*1443 FILLER_0_27_296
*1444 FILLER_0_27_3
*1445 FILLER_0_27_302
*1446 FILLER_0_27_311
*1447 FILLER_0_27_320
*1448 FILLER_0_27_340
*1449 FILLER_0_27_348
*1450 FILLER_0_27_53
*1451 FILLER_0_27_57
*1452 FILLER_0_27_69
*1453 FILLER_0_28_103
*1454 FILLER_0_28_127
*1455 FILLER_0_28_139
*1456 FILLER_0_28_149
*1457 FILLER_0_28_15
*1458 FILLER_0_28_157
*1459 FILLER_0_28_166
*1460 FILLER_0_28_178
*1461 FILLER_0_28_190
*1462 FILLER_0_28_195
*1463 FILLER_0_28_206
*1464 FILLER_0_28_218
*1465 FILLER_0_28_24
*1466 FILLER_0_28_265
*1467 FILLER_0_28_273
*1468 FILLER_0_28_278
*1469 FILLER_0_28_288
*1470 FILLER_0_28_29
*1471 FILLER_0_28_3
*1472 FILLER_0_28_301
*1473 FILLER_0_28_33
*1474 FILLER_0_28_331
*1475 FILLER_0_28_339
*1476 FILLER_0_28_50
*1477 FILLER_0_28_62
*1478 FILLER_0_28_74
*1479 FILLER_0_28_78
*1480 FILLER_0_28_82
*1481 FILLER_0_29_103
*1482 FILLER_0_29_142
*1483 FILLER_0_29_154
*1484 FILLER_0_29_167
*1485 FILLER_0_29_172
*1486 FILLER_0_29_184
*1487 FILLER_0_29_210
*1488 FILLER_0_29_222
*1489 FILLER_0_29_225
*1490 FILLER_0_29_235
*1491 FILLER_0_29_259
*1492 FILLER_0_29_267
*1493 FILLER_0_29_297
*1494 FILLER_0_29_3
*1495 FILLER_0_29_301
*1496 FILLER_0_29_337
*1497 FILLER_0_29_349
*1498 FILLER_0_29_51
*1499 FILLER_0_29_55
*1500 FILLER_0_29_57
*1501 FILLER_0_29_63
*1502 FILLER_0_29_80
*1503 FILLER_0_29_92
*1504 FILLER_0_29_96
*1505 FILLER_0_2_122
*1506 FILLER_0_2_128
*1507 FILLER_0_2_144
*1508 FILLER_0_2_148
*1509 FILLER_0_2_15
*1510 FILLER_0_2_197
*1511 FILLER_0_2_231
*1512 FILLER_0_2_27
*1513 FILLER_0_2_273
*1514 FILLER_0_2_29
*1515 FILLER_0_2_297
*1516 FILLER_0_2_3
*1517 FILLER_0_2_312
*1518 FILLER_0_2_335
*1519 FILLER_0_2_347
*1520 FILLER_0_2_41
*1521 FILLER_0_2_53
*1522 FILLER_0_2_62
*1523 FILLER_0_30_117
*1524 FILLER_0_30_144
*1525 FILLER_0_30_15
*1526 FILLER_0_30_152
*1527 FILLER_0_30_185
*1528 FILLER_0_30_19
*1529 FILLER_0_30_191
*1530 FILLER_0_30_195
*1531 FILLER_0_30_206
*1532 FILLER_0_30_218
*1533 FILLER_0_30_222
*1534 FILLER_0_30_23
*1535 FILLER_0_30_246
*1536 FILLER_0_30_256
*1537 FILLER_0_30_268
*1538 FILLER_0_30_27
*1539 FILLER_0_30_298
*1540 FILLER_0_30_3
*1541 FILLER_0_30_306
*1542 FILLER_0_30_320
*1543 FILLER_0_30_347
*1544 FILLER_0_30_38
*1545 FILLER_0_30_50
*1546 FILLER_0_30_76
*1547 FILLER_0_31_11
*1548 FILLER_0_31_111
*1549 FILLER_0_31_116
*1550 FILLER_0_31_173
*1551 FILLER_0_31_181
*1552 FILLER_0_31_222
*1553 FILLER_0_31_251
*1554 FILLER_0_31_263
*1555 FILLER_0_31_275
*1556 FILLER_0_31_279
*1557 FILLER_0_31_293
*1558 FILLER_0_31_3
*1559 FILLER_0_31_305
*1560 FILLER_0_31_313
*1561 FILLER_0_31_337
*1562 FILLER_0_31_349
*1563 FILLER_0_31_44
*1564 FILLER_0_31_52
*1565 FILLER_0_31_78
*1566 FILLER_0_32_119
*1567 FILLER_0_32_131
*1568 FILLER_0_32_141
*1569 FILLER_0_32_15
*1570 FILLER_0_32_151
*1571 FILLER_0_32_161
*1572 FILLER_0_32_166
*1573 FILLER_0_32_178
*1574 FILLER_0_32_186
*1575 FILLER_0_32_220
*1576 FILLER_0_32_245
*1577 FILLER_0_32_251
*1578 FILLER_0_32_273
*1579 FILLER_0_32_277
*1580 FILLER_0_32_283
*1581 FILLER_0_32_295
*1582 FILLER_0_32_3
*1583 FILLER_0_32_303
*1584 FILLER_0_32_307
*1585 FILLER_0_32_309
*1586 FILLER_0_32_318
*1587 FILLER_0_32_322
*1588 FILLER_0_32_334
*1589 FILLER_0_32_346
*1590 FILLER_0_32_350
*1591 FILLER_0_32_41
*1592 FILLER_0_32_53
*1593 FILLER_0_32_64
*1594 FILLER_0_32_74
*1595 FILLER_0_32_82
*1596 FILLER_0_32_95
*1597 FILLER_0_33_109
*1598 FILLER_0_33_11
*1599 FILLER_0_33_118
*1600 FILLER_0_33_130
*1601 FILLER_0_33_138
*1602 FILLER_0_33_150
*1603 FILLER_0_33_154
*1604 FILLER_0_33_166
*1605 FILLER_0_33_169
*1606 FILLER_0_33_181
*1607 FILLER_0_33_193
*1608 FILLER_0_33_205
*1609 FILLER_0_33_217
*1610 FILLER_0_33_223