*SPEF "ieee 1481-1999"
*DESIGN "tt_um_rodrigomunoz1_rotempsensor_top"
*DATE "11:11:11 Fri 11 11, 1111"
*VENDOR "OpenRCX"
*PROGRAM "Parallel Extraction"
*VERSION "1.0"
*DESIGN_FLOW "NAME_SCOPE LOCAL" "PIN_CAP NONE"
*DIVIDER /
*DELIMITER :
*BUS_DELIMITER []
*T_UNIT 1 NS
*C_UNIT 1 PF
*R_UNIT 1 OHM
*L_UNIT 1 HENRY

*NAME_MAP
*3 clk
*4 ena
*5 rst_n
*6 ui_in[0]
*7 ui_in[1]
*8 ui_in[2]
*9 ui_in[3]
*10 ui_in[4]
*11 ui_in[5]
*12 ui_in[6]
*13 ui_in[7]
*14 uio_in[0]
*15 uio_in[1]
*16 uio_in[2]
*17 uio_in[3]
*18 uio_in[4]
*19 uio_in[5]
*20 uio_in[6]
*21 uio_in[7]
*22 net13
*23 net14
*24 net15
*25 net16
*26 net17
*27 net18
*28 net19
*29 net20
*30 uio_out[0]
*31 uio_out[1]
*32 uio_out[2]
*33 uio_out[3]
*34 uio_out[4]
*35 uio_out[5]
*36 uio_out[6]
*37 uio_out[7]
*38 uo_out[0]
*39 uo_out[1]
*40 uo_out[2]
*41 uo_out[3]
*42 uo_out[4]
*43 uo_out[5]
*44 uo_out[6]
*45 uo_out[7]
*46 _0000_
*47 _0001_
*48 _0002_
*49 _0003_
*50 _0004_
*51 _0005_
*52 _0006_
*53 _0007_
*54 _0008_
*55 _0009_
*56 _0010_
*57 _0011_
*58 _0012_
*59 _0013_
*60 _0014_
*61 _0015_
*62 _0016_
*63 _0017_
*64 _0018_
*65 _0019_
*66 _0020_
*67 _0021_
*68 _0022_
*69 _0023_
*70 _0024_
*71 _0025_
*72 _0026_
*73 _0027_
*74 _0028_
*75 _0029_
*76 _0030_
*77 _0031_
*78 _0032_
*79 _0033_
*80 _0034_
*81 _0035_
*82 _0036_
*83 _0037_
*84 _0038_
*85 _0039_
*86 _0040_
*87 _0041_
*88 _0042_
*89 _0043_
*90 _0044_
*91 _0045_
*92 _0046_
*93 _0047_
*94 _0048_
*95 _0049_
*96 _0050_
*97 _0051_
*98 _0052_
*99 _0053_
*100 _0054_
*101 _0055_
*102 _0056_
*103 _0057_
*104 _0058_
*105 _0059_
*106 _0060_
*107 _0061_
*108 _0062_
*109 _0063_
*110 _0064_
*111 _0065_
*112 _0066_
*113 _0067_
*114 _0068_
*115 _0069_
*116 _0070_
*117 _0071_
*118 _0072_
*119 _0073_
*120 _0074_
*121 _0075_
*122 _0076_
*123 _0077_
*124 _0078_
*125 _0079_
*126 _0080_
*127 _0081_
*128 _0082_
*129 _0083_
*130 _0084_
*131 _0085_
*132 _0086_
*133 _0087_
*134 _0088_
*135 _0089_
*136 _0090_
*137 _0091_
*138 _0092_
*139 _0093_
*140 _0094_
*141 _0095_
*142 _0096_
*143 _0097_
*144 _0098_
*145 _0099_
*146 _0100_
*147 _0101_
*148 _0102_
*149 _0103_
*150 _0104_
*151 _0105_
*152 _0106_
*153 _0107_
*154 _0108_
*155 _0109_
*156 _0110_
*157 _0111_
*158 _0112_
*159 _0113_
*160 _0114_
*161 _0115_
*162 _0116_
*163 _0117_
*164 _0118_
*165 _0119_
*166 _0120_
*167 _0121_
*168 _0122_
*169 _0123_
*170 _0124_
*171 _0125_
*172 _0126_
*173 _0127_
*174 _0128_
*175 _0129_
*176 _0130_
*177 _0131_
*178 _0132_
*179 _0133_
*180 _0134_
*181 _0135_
*182 _0136_
*183 _0137_
*184 _0138_
*185 _0139_
*186 _0140_
*187 _0141_
*188 _0142_
*189 _0143_
*190 _0144_
*191 _0145_
*192 _0146_
*193 _0147_
*194 _0148_
*195 _0149_
*196 _0150_
*197 _0151_
*198 _0152_
*199 _0153_
*200 _0154_
*201 _0155_
*202 _0156_
*203 _0157_
*204 _0158_
*205 _0159_
*206 _0160_
*207 _0161_
*208 _0162_
*209 _0163_
*210 _0164_
*211 _0165_
*212 _0166_
*213 _0167_
*214 _0168_
*215 _0169_
*216 _0170_
*217 _0171_
*218 _0172_
*219 _0173_
*220 _0174_
*221 _0175_
*222 _0176_
*223 _0177_
*224 _0178_
*225 _0179_
*226 _0180_
*227 _0181_
*228 _0182_
*229 _0183_
*230 _0184_
*231 _0185_
*232 _0186_
*233 _0187_
*234 _0188_
*235 _0189_
*236 _0190_
*237 _0191_
*238 _0192_
*239 _0193_
*240 _0194_
*241 _0195_
*242 _0196_
*243 _0197_
*244 _0198_
*245 _0199_
*246 _0200_
*247 _0201_
*248 _0202_
*249 _0203_
*250 _0204_
*251 _0205_
*252 _0206_
*253 _0207_
*254 _0208_
*255 _0209_
*256 _0210_
*257 _0211_
*258 _0212_
*259 _0213_
*260 _0214_
*261 _0215_
*262 _0216_
*263 _0217_
*264 _0218_
*265 _0219_
*266 _0220_
*267 _0221_
*268 _0222_
*269 _0223_
*270 _0224_
*271 _0225_
*272 _0226_
*273 _0227_
*274 _0228_
*275 _0229_
*276 _0230_
*277 _0231_
*278 _0232_
*279 _0233_
*280 _0234_
*281 _0235_
*282 _0236_
*283 _0237_
*284 _0238_
*285 _0239_
*286 _0240_
*287 _0241_
*288 _0242_
*289 _0243_
*290 _0244_
*291 _0245_
*292 _0246_
*293 _0247_
*294 _0248_
*295 _0249_
*296 _0250_
*297 _0251_
*298 _0252_
*299 _0253_
*300 _0254_
*301 _0255_
*302 _0256_
*303 _0257_
*304 _0258_
*305 _0259_
*306 _0260_
*307 _0261_
*308 _0262_
*309 _0263_
*310 _0264_
*311 _0265_
*312 _0266_
*313 _0267_
*314 _0268_
*315 _0269_
*316 _0270_
*317 _0271_
*318 _0272_
*319 _0273_
*320 _0274_
*321 _0275_
*322 _0276_
*323 _0277_
*324 _0278_
*325 _0279_
*326 _0280_
*327 _0281_
*328 _0282_
*329 _0283_
*330 _0284_
*331 _0285_
*332 _0286_
*333 _0287_
*334 _0288_
*335 _0289_
*336 _0290_
*337 _0291_
*338 _0292_
*339 _0293_
*340 _0294_
*341 _0295_
*342 _0296_
*343 _0297_
*344 _0298_
*345 _0299_
*346 _0300_
*347 _0301_
*348 _0302_
*349 _0303_
*350 _0304_
*351 _0305_
*352 _0306_
*353 _0307_
*354 _0308_
*355 _0309_
*356 _0310_
*357 _0311_
*358 _0312_
*359 _0313_
*360 _0314_
*361 _0315_
*362 _0316_
*363 _0317_
*364 _0318_
*365 _0319_
*366 _0320_
*367 _0321_
*368 _0322_
*369 _0323_
*370 _0324_
*371 _0325_
*372 _0326_
*373 _0327_
*374 _0328_
*375 _0329_
*376 _0330_
*377 _0331_
*378 _0332_
*379 _0333_
*380 _0334_
*381 _0335_
*382 _0336_
*383 _0337_
*384 _0338_
*385 _0339_
*386 _0340_
*387 _0341_
*388 _0342_
*389 _0343_
*390 _0344_
*391 _0345_
*392 _0346_
*393 _0347_
*394 _0348_
*395 _0349_
*396 _0350_
*397 _0351_
*398 _0352_
*399 _0353_
*400 _0354_
*401 _0355_
*402 _0356_
*403 _0357_
*404 _0358_
*405 _0359_
*406 _0360_
*407 _0361_
*408 _0362_
*409 _0363_
*410 _0364_
*411 _0365_
*412 _0366_
*413 _0367_
*414 _0368_
*415 _0369_
*416 _0370_
*417 _0371_
*418 _0372_
*419 _0373_
*420 _0374_
*421 _0375_
*422 _0376_
*423 _0377_
*424 _0378_
*425 _0379_
*426 _0380_
*427 _0381_
*428 _0382_
*429 _0383_
*430 _0384_
*431 _0385_
*432 _0386_
*433 _0387_
*434 _0388_
*435 _0389_
*436 _0390_
*437 _0391_
*438 _0392_
*439 _0393_
*440 _0394_
*441 _0395_
*442 _0396_
*443 _0397_
*444 _0398_
*445 _0399_
*446 _0400_
*447 _0401_
*448 _0402_
*449 _0403_
*450 _0404_
*451 _0405_
*452 _0406_
*453 _0407_
*454 _0408_
*455 _0409_
*456 _0410_
*457 _0411_
*458 _0412_
*459 _0413_
*460 _0414_
*461 _0415_
*462 _0416_
*463 _0417_
*464 _0418_
*465 _0419_
*466 _0420_
*467 _0421_
*468 _0422_
*469 _0423_
*470 _0424_
*471 _0425_
*472 _0426_
*473 _0427_
*474 _0428_
*475 _0429_
*476 _0430_
*477 _0431_
*478 _0432_
*479 _0433_
*480 _0434_
*481 _0435_
*482 _0436_
*483 _0437_
*484 _0438_
*485 _0439_
*486 _0440_
*487 _0441_
*488 _0442_
*489 _0443_
*490 _0444_
*491 _0445_
*492 _0446_
*493 _0447_
*494 _0448_
*495 _0449_
*496 _0450_
*497 _0451_
*498 _0452_
*499 _0453_
*500 _0454_
*501 _0455_
*502 _0456_
*503 _0457_
*504 _0458_
*505 _0459_
*506 _0460_
*507 _0461_
*508 _0462_
*509 _0463_
*510 _0464_
*511 _0465_
*512 _0466_
*513 _0467_
*514 _0468_
*515 _0469_
*516 _0470_
*517 _0471_
*518 _0472_
*519 _0473_
*520 _0474_
*521 _0475_
*522 _0476_
*523 _0477_
*524 _0478_
*525 _0479_
*526 _0480_
*527 _0481_
*528 _0482_
*529 _0483_
*530 _0484_
*531 _0485_
*532 _0486_
*533 _0487_
*534 _0488_
*535 _0489_
*536 _0490_
*537 _0491_
*538 _0492_
*539 _0493_
*540 _0494_
*541 _0495_
*542 _0496_
*543 _0497_
*544 _0498_
*545 _0499_
*546 _0500_
*547 _0501_
*548 _0502_
*549 _0503_
*550 _0504_
*551 _0505_
*552 _0506_
*553 _0507_
*554 _0508_
*555 _0509_
*556 _0510_
*557 _0511_
*558 _0512_
*559 _0513_
*560 _0514_
*561 _0515_
*562 _0516_
*563 _0517_
*564 _0518_
*565 _0519_
*566 _0520_
*567 _0521_
*568 _0522_
*569 _0523_
*570 _0524_
*571 _0525_
*572 _0526_
*573 _0527_
*574 _0528_
*575 _0529_
*576 _0530_
*577 _0531_
*578 _0532_
*579 _0533_
*580 _0534_
*581 _0535_
*582 _0536_
*583 _0537_
*584 _0538_
*585 _0539_
*586 _0540_
*587 _0541_
*588 _0542_
*589 _0543_
*590 _0544_
*591 _0545_
*592 _0546_
*593 _0547_
*594 _0548_
*595 _0549_
*596 _0550_
*597 _0551_
*598 _0552_
*599 _0553_
*600 _0554_
*601 _0555_
*602 _0556_
*603 _0557_
*604 _0558_
*605 _0559_
*606 _0560_
*607 _0561_
*608 _0562_
*609 _0563_
*610 _0564_
*611 _0565_
*612 _0566_
*613 _0567_
*614 _0568_
*615 _0569_
*616 _0570_
*617 _0571_
*618 _0572_
*619 _0573_
*620 _0574_
*621 _0575_
*622 _0576_
*623 _0577_
*624 _0578_
*625 _0579_
*626 _0580_
*627 _0581_
*628 _0582_
*629 _0583_
*630 _0584_
*631 _0585_
*632 _0586_
*633 _0587_
*634 _0588_
*635 _0589_
*636 _0590_
*637 _0591_
*638 _0592_
*639 _0593_
*640 _0594_
*641 _0595_
*642 _0596_
*643 _0597_
*644 _0598_
*645 _0599_
*646 _0600_
*647 _0601_
*648 _0602_
*649 _0603_
*650 _0604_
*651 _0605_
*652 _0606_
*653 _0607_
*654 _0608_
*655 _0609_
*656 _0610_
*657 _0611_
*658 _0612_
*659 _0613_
*660 _0614_
*661 _0615_
*662 _0616_
*663 _0617_
*664 _0618_
*665 _0619_
*666 _0620_
*667 _0621_
*668 _0622_
*669 _0623_
*670 _0624_
*671 _0625_
*672 _0626_
*673 _0627_
*674 _0628_
*675 _0629_
*676 _0630_
*677 _0631_
*678 _0632_
*679 _0633_
*680 _0634_
*681 _0635_
*682 _0636_
*683 _0637_
*684 _0638_
*685 _0639_
*686 _0640_
*687 _0641_
*688 _0642_
*689 _0643_
*690 clknet_0__0245_
*691 clknet_0__0246_
*692 clknet_0_cont\.clk
*693 clknet_1_0__leaf__0245_
*694 clknet_1_0__leaf__0246_
*695 clknet_1_1__leaf__0245_
*696 clknet_1_1__leaf__0246_
*697 clknet_4_0_0_cont\.clk
*698 clknet_4_10_0_cont\.clk
*699 clknet_4_11_0_cont\.clk
*700 clknet_4_12_0_cont\.clk
*701 clknet_4_13_0_cont\.clk
*702 clknet_4_14_0_cont\.clk
*703 clknet_4_15_0_cont\.clk
*704 clknet_4_1_0_cont\.clk
*705 clknet_4_2_0_cont\.clk
*706 clknet_4_3_0_cont\.clk
*707 clknet_4_4_0_cont\.clk
*708 clknet_4_5_0_cont\.clk
*709 clknet_4_6_0_cont\.clk
*710 clknet_4_7_0_cont\.clk
*711 clknet_4_8_0_cont\.clk
*712 clknet_4_9_0_cont\.clk
*713 cont\.aux
*714 cont\.clk
*715 cont\.count\[0\]
*716 cont\.count\[10\]
*717 cont\.count\[11\]
*718 cont\.count\[12\]
*719 cont\.count\[13\]
*720 cont\.count\[14\]
*721 cont\.count\[15\]
*722 cont\.count\[1\]
*723 cont\.count\[2\]
*724 cont\.count\[3\]
*725 cont\.count\[4\]
*726 cont\.count\[5\]
*727 cont\.count\[6\]
*728 cont\.count\[7\]
*729 cont\.count\[8\]
*730 cont\.count\[9\]
*731 cont\.osc_clk
*732 controller\.rx_data\[0\]
*733 controller\.rx_data\[1\]
*734 controller\.rx_data\[2\]
*735 controller\.rx_data\[3\]
*736 controller\.rx_data\[4\]
*737 controller\.rx_data\[5\]
*738 controller\.rx_data\[6\]
*739 controller\.rx_data\[7\]
*740 controller\.rx_ready
*741 controller\.state\[0\]
*742 controller\.state\[1\]
*743 controller\.state\[2\]
*744 controller\.state\[3\]
*745 controller\.sum_ready
*746 controller\.timer\[0\]
*747 controller\.timer\[10\]
*748 controller\.timer\[11\]
*749 controller\.timer\[12\]
*750 controller\.timer\[13\]
*751 controller\.timer\[14\]
*752 controller\.timer\[15\]
*753 controller\.timer\[1\]
*754 controller\.timer\[2\]
*755 controller\.timer\[3\]
*756 controller\.timer\[4\]
*757 controller\.timer\[5\]
*758 controller\.timer\[6\]
*759 controller\.timer\[7\]
*760 controller\.timer\[8\]
*761 controller\.timer\[9\]
*762 m2\.a
*763 m2\.b
*764 m2\.c
*765 m2\.d
*766 net1
*767 net10
*768 net100
*769 net101
*770 net102
*771 net103
*772 net104
*773 net105
*774 net106
*775 net107
*776 net108
*777 net109
*778 net11
*779 net110
*780 net111
*781 net112
*782 net113
*783 net114
*784 net115
*785 net116
*786 net117
*787 net118
*788 net119
*789 net12
*790 net120
*791 net121
*792 net122
*793 net123
*794 net124
*795 net125
*796 net126
*797 net127
*798 net128
*799 net129
*800 net130
*801 net2
*802 net21
*803 net22
*804 net23
*805 net24
*806 net25
*807 net26
*808 net27
*809 net28
*810 net29
*811 net3
*812 net30
*813 net31
*814 net32
*815 net33
*816 net34
*817 net35
*818 net36
*819 net37
*820 net38
*821 net39
*822 net4
*823 net40
*824 net41
*825 net42
*826 net43
*827 net44
*828 net45
*829 net46
*830 net47
*831 net48
*832 net49
*833 net5
*834 net50
*835 net51
*836 net52
*837 net53
*838 net54
*839 net55
*840 net56
*841 net57
*842 net58
*843 net59
*844 net6
*845 net60
*846 net61
*847 net62
*848 net63
*849 net64
*850 net65
*851 net66
*852 net67
*853 net68
*854 net69
*855 net7
*856 net70
*857 net71
*858 net72
*859 net73
*860 net74
*861 net75
*862 net76
*863 net77
*864 net78
*865 net79
*866 net8
*867 net80
*868 net81
*869 net82
*870 net83
*871 net84
*872 net85
*873 net86
*874 net87
*875 net88
*876 net89
*877 net9
*878 net90
*879 net91
*880 net92
*881 net93
*882 net94
*883 net95
*884 net96
*885 net97
*886 net98
*887 net99
*888 osc1\.aux_wire\[0\]
*889 osc1\.aux_wire\[10\]
*890 osc1\.aux_wire\[11\]
*891 osc1\.aux_wire\[12\]
*892 osc1\.aux_wire\[13\]
*893 osc1\.aux_wire\[14\]
*894 osc1\.aux_wire\[1\]
*895 osc1\.aux_wire\[2\]
*896 osc1\.aux_wire\[3\]
*897 osc1\.aux_wire\[4\]
*898 osc1\.aux_wire\[5\]
*899 osc1\.aux_wire\[6\]
*900 osc1\.aux_wire\[7\]
*901 osc1\.aux_wire\[8\]
*902 osc1\.aux_wire\[9\]
*903 osc2\.aux_wire\[0\]
*904 osc2\.aux_wire\[10\]
*905 osc2\.aux_wire\[11\]
*906 osc2\.aux_wire\[12\]
*907 osc2\.aux_wire\[13\]
*908 osc2\.aux_wire\[14\]
*909 osc2\.aux_wire\[1\]
*910 osc2\.aux_wire\[2\]
*911 osc2\.aux_wire\[3\]
*912 osc2\.aux_wire\[4\]
*913 osc2\.aux_wire\[5\]
*914 osc2\.aux_wire\[6\]
*915 osc2\.aux_wire\[7\]
*916 osc2\.aux_wire\[8\]
*917 osc2\.aux_wire\[9\]
*918 osc3\.aux_wire\[0\]
*919 osc3\.aux_wire\[1\]
*920 osc3\.aux_wire\[2\]
*921 osc3\.aux_wire\[3\]
*922 osc3\.aux_wire\[4\]
*923 osc3\.aux_wire\[5\]
*924 osc3\.aux_wire\[6\]
*925 osc4\.aux_wire\[0\]
*926 osc4\.aux_wire\[10\]
*927 osc4\.aux_wire\[11\]
*928 osc4\.aux_wire\[12\]
*929 osc4\.aux_wire\[13\]
*930 osc4\.aux_wire\[14\]
*931 osc4\.aux_wire\[15\]
*932 osc4\.aux_wire\[16\]
*933 osc4\.aux_wire\[17\]
*934 osc4\.aux_wire\[18\]
*935 osc4\.aux_wire\[19\]
*936 osc4\.aux_wire\[1\]
*937 osc4\.aux_wire\[20\]
*938 osc4\.aux_wire\[2\]
*939 osc4\.aux_wire\[3\]
*940 osc4\.aux_wire\[4\]
*941 osc4\.aux_wire\[5\]
*942 osc4\.aux_wire\[6\]
*943 osc4\.aux_wire\[7\]
*944 osc4\.aux_wire\[8\]
*945 osc4\.aux_wire\[9\]
*946 prom\.contador\[0\]
*947 prom\.contador\[1\]
*948 prom\.contador\[2\]
*949 prom\.contador\[3\]
*950 prom\.contador\[4\]
*951 prom\.contador\[5\]
*952 prom\.contador\[6\]
*953 prom\.contador\[7\]
*954 prom\.out\[0\]
*955 prom\.out\[10\]
*956 prom\.out\[11\]
*957 prom\.out\[12\]
*958 prom\.out\[13\]
*959 prom\.out\[14\]
*960 prom\.out\[15\]
*961 prom\.out\[16\]
*962 prom\.out\[17\]
*963 prom\.out\[18\]
*964 prom\.out\[19\]
*965 prom\.out\[1\]
*966 prom\.out\[20\]
*967 prom\.out\[21\]
*968 prom\.out\[22\]
*969 prom\.out\[23\]
*970 prom\.out\[2\]
*971 prom\.out\[3\]
*972 prom\.out\[4\]
*973 prom\.out\[5\]
*974 prom\.out\[6\]
*975 prom\.out\[7\]
*976 prom\.out\[8\]
*977 prom\.out\[9\]
*978 prom\.promedio\[0\]
*979 prom\.promedio\[10\]
*980 prom\.promedio\[11\]
*981 prom\.promedio\[12\]
*982 prom\.promedio\[13\]
*983 prom\.promedio\[14\]
*984 prom\.promedio\[15\]
*985 prom\.promedio\[16\]
*986 prom\.promedio\[17\]
*987 prom\.promedio\[18\]
*988 prom\.promedio\[19\]
*989 prom\.promedio\[1\]
*990 prom\.promedio\[20\]
*991 prom\.promedio\[21\]
*992 prom\.promedio\[22\]
*993 prom\.promedio\[23\]
*994 prom\.promedio\[2\]
*995 prom\.promedio\[3\]
*996 prom\.promedio\[4\]
*997 prom\.promedio\[5\]
*998 prom\.promedio\[6\]
*999 prom\.promedio\[7\]
*1000 prom\.promedio\[8\]
*1001 prom\.promedio\[9\]
*1002 uart\.baud8_tick_blk\.acc\[10\]
*1003 uart\.baud8_tick_blk\.acc\[11\]
*1004 uart\.baud8_tick_blk\.acc\[12\]
*1005 uart\.baud8_tick_blk\.acc\[13\]
*1006 uart\.baud8_tick_blk\.acc\[14\]
*1007 uart\.baud8_tick_blk\.acc\[15\]
*1008 uart\.baud8_tick_blk\.acc\[2\]
*1009 uart\.baud8_tick_blk\.acc\[3\]
*1010 uart\.baud8_tick_blk\.acc\[4\]
*1011 uart\.baud8_tick_blk\.acc\[5\]
*1012 uart\.baud8_tick_blk\.acc\[6\]
*1013 uart\.baud8_tick_blk\.acc\[7\]
*1014 uart\.baud8_tick_blk\.acc\[8\]
*1015 uart\.baud8_tick_blk\.acc\[9\]
*1016 uart\.baud_tick_blk\.acc\[0\]
*1017 uart\.baud_tick_blk\.acc\[10\]
*1018 uart\.baud_tick_blk\.acc\[11\]
*1019 uart\.baud_tick_blk\.acc\[12\]
*1020 uart\.baud_tick_blk\.acc\[13\]
*1021 uart\.baud_tick_blk\.acc\[14\]
*1022 uart\.baud_tick_blk\.acc\[15\]
*1023 uart\.baud_tick_blk\.acc\[1\]
*1024 uart\.baud_tick_blk\.acc\[2\]
*1025 uart\.baud_tick_blk\.acc\[3\]
*1026 uart\.baud_tick_blk\.acc\[4\]
*1027 uart\.baud_tick_blk\.acc\[5\]
*1028 uart\.baud_tick_blk\.acc\[6\]
*1029 uart\.baud_tick_blk\.acc\[7\]
*1030 uart\.baud_tick_blk\.acc\[8\]
*1031 uart\.baud_tick_blk\.acc\[9\]
*1032 uart\.rx_ready_pre
*1033 uart\.rx_ready_sync
*1034 uart\.tx
*1035 uart\.uart_rx_blk\.bit_counter\[0\]
*1036 uart\.uart_rx_blk\.bit_counter\[1\]
*1037 uart\.uart_rx_blk\.bit_counter\[2\]
*1038 uart\.uart_rx_blk\.rx_bit
*1039 uart\.uart_rx_blk\.rx_sync_inst\.in_sync
*1040 uart\.uart_rx_blk\.rx_sync_inst\.in_sync_sr\[1\]
*1041 uart\.uart_rx_blk\.rx_sync_inst\.sync_counter\[0\]
*1042 uart\.uart_rx_blk\.rx_sync_inst\.sync_counter\[1\]
*1043 uart\.uart_rx_blk\.spacing_counter\[0\]
*1044 uart\.uart_rx_blk\.spacing_counter\[1\]
*1045 uart\.uart_rx_blk\.spacing_counter\[2\]
*1046 uart\.uart_rx_blk\.state\[0\]
*1047 uart\.uart_rx_blk\.state\[1\]
*1048 uart\.uart_rx_blk\.state\[2\]
*1049 uart\.uart_tx_blk\.counter\[0\]
*1050 uart\.uart_tx_blk\.counter\[1\]
*1051 uart\.uart_tx_blk\.counter\[2\]
*1052 uart\.uart_tx_blk\.state\[0\]
*1053 uart\.uart_tx_blk\.state\[1\]
*1054 uart\.uart_tx_blk\.tx_data_reg\[0\]
*1055 uart\.uart_tx_blk\.tx_data_reg\[1\]
*1056 uart\.uart_tx_blk\.tx_data_reg\[2\]
*1057 uart\.uart_tx_blk\.tx_data_reg\[3\]
*1058 uart\.uart_tx_blk\.tx_data_reg\[4\]
*1059 uart\.uart_tx_blk\.tx_data_reg\[5\]
*1060 uart\.uart_tx_blk\.tx_data_reg\[6\]
*1061 uart\.uart_tx_blk\.tx_data_reg\[7\]
*1062 FILLER_0_0_102
*1063 FILLER_0_0_110
*1064 FILLER_0_0_113
*1065 FILLER_0_0_121
*1066 FILLER_0_0_130
*1067 FILLER_0_0_139
*1068 FILLER_0_0_141
*1069 FILLER_0_0_15
*1070 FILLER_0_0_153
*1071 FILLER_0_0_165
*1072 FILLER_0_0_169
*1073 FILLER_0_0_177
*1074 FILLER_0_0_195
*1075 FILLER_0_0_197
*1076 FILLER_0_0_215
*1077 FILLER_0_0_222
*1078 FILLER_0_0_225
*1079 FILLER_0_0_237
*1080 FILLER_0_0_245
*1081 FILLER_0_0_250
*1082 FILLER_0_0_253
*1083 FILLER_0_0_265
*1084 FILLER_0_0_27
*1085 FILLER_0_0_273
*1086 FILLER_0_0_277
*1087 FILLER_0_0_281
*1088 FILLER_0_0_29
*1089 FILLER_0_0_296
*1090 FILLER_0_0_3
*1091 FILLER_0_0_305
*1092 FILLER_0_0_309
*1093 FILLER_0_0_321
*1094 FILLER_0_0_333
*1095 FILLER_0_0_337
*1096 FILLER_0_0_349
*1097 FILLER_0_0_49
*1098 FILLER_0_0_55
*1099 FILLER_0_0_57
*1100 FILLER_0_0_69
*1101 FILLER_0_0_75
*1102 FILLER_0_10_104
*1103 FILLER_0_10_11
*1104 FILLER_0_10_116
*1105 FILLER_0_10_128
*1106 FILLER_0_10_132
*1107 FILLER_0_10_137
*1108 FILLER_0_10_141
*1109 FILLER_0_10_178
*1110 FILLER_0_10_190
*1111 FILLER_0_10_195
*1112 FILLER_0_10_201
*1113 FILLER_0_10_209
*1114 FILLER_0_10_223
*1115 FILLER_0_10_250
*1116 FILLER_0_10_267
*1117 FILLER_0_10_3
*1118 FILLER_0_10_303
*1119 FILLER_0_10_307
*1120 FILLER_0_10_314
*1121 FILLER_0_10_347
*1122 FILLER_0_10_42
*1123 FILLER_0_10_59
*1124 FILLER_0_10_67
*1125 FILLER_0_10_85
*1126 FILLER_0_11_111
*1127 FILLER_0_11_113
*1128 FILLER_0_11_121
*1129 FILLER_0_11_15
*1130 FILLER_0_11_167
*1131 FILLER_0_11_21
*1132 FILLER_0_11_222
*1133 FILLER_0_11_228
*1134 FILLER_0_11_258
*1135 FILLER_0_11_3
*1136 FILLER_0_11_327
*1137 FILLER_0_11_35
*1138 FILLER_0_11_43
*1139 FILLER_0_11_53
*1140 FILLER_0_11_57
*1141 FILLER_0_11_69
*1142 FILLER_0_11_85
*1143 FILLER_0_12_123
*1144 FILLER_0_12_135
*1145 FILLER_0_12_139
*1146 FILLER_0_12_144
*1147 FILLER_0_12_148
*1148 FILLER_0_12_15
*1149 FILLER_0_12_170
*1150 FILLER_0_12_180
*1151 FILLER_0_12_21
*1152 FILLER_0_12_229
*1153 FILLER_0_12_237
*1154 FILLER_0_12_242
*1155 FILLER_0_12_251
*1156 FILLER_0_12_259
*1157 FILLER_0_12_26
*1158 FILLER_0_12_263
*1159 FILLER_0_12_3
*1160 FILLER_0_12_307
*1161 FILLER_0_12_34
*1162 FILLER_0_12_350
*1163 FILLER_0_12_44
*1164 FILLER_0_12_48
*1165 FILLER_0_12_66
*1166 FILLER_0_12_81
*1167 FILLER_0_13_113
*1168 FILLER_0_13_127
*1169 FILLER_0_13_139
*1170 FILLER_0_13_145
*1171 FILLER_0_13_162
*1172 FILLER_0_13_169
*1173 FILLER_0_13_177
*1174 FILLER_0_13_183
*1175 FILLER_0_13_194
*1176 FILLER_0_13_220
*1177 FILLER_0_13_225
*1178 FILLER_0_13_233
*1179 FILLER_0_13_251
*1180 FILLER_0_13_263
*1181 FILLER_0_13_269
*1182 FILLER_0_13_275
*1183 FILLER_0_13_279
*1184 FILLER_0_13_3
*1185 FILLER_0_13_310
*1186 FILLER_0_13_32
*1187 FILLER_0_13_337
*1188 FILLER_0_13_341
*1189 FILLER_0_13_347
*1190 FILLER_0_13_55
*1191 FILLER_0_13_57
*1192 FILLER_0_13_75
*1193 FILLER_0_13_83
*1194 FILLER_0_13_9
*1195 FILLER_0_14_115
*1196 FILLER_0_14_131
*1197 FILLER_0_14_139
*1198 FILLER_0_14_141
*1199 FILLER_0_14_181
*1200 FILLER_0_14_189
*1201 FILLER_0_14_193
*1202 FILLER_0_14_197
*1203 FILLER_0_14_202
*1204 FILLER_0_14_210
*1205 FILLER_0_14_218
*1206 FILLER_0_14_226
*1207 FILLER_0_14_233
*1208 FILLER_0_14_250
*1209 FILLER_0_14_253
*1210 FILLER_0_14_26
*1211 FILLER_0_14_265
*1212 FILLER_0_14_277
*1213 FILLER_0_14_289
*1214 FILLER_0_14_3
*1215 FILLER_0_14_306
*1216 FILLER_0_14_309
*1217 FILLER_0_14_342
*1218 FILLER_0_14_350
*1219 FILLER_0_14_68
*1220 FILLER_0_14_83
*1221 FILLER_0_14_85
*1222 FILLER_0_14_89
*1223 FILLER_0_14_96
*1224 FILLER_0_15_100
*1225 FILLER_0_15_108
*1226 FILLER_0_15_129
*1227 FILLER_0_15_141
*1228 FILLER_0_15_167
*1229 FILLER_0_15_177
*1230 FILLER_0_15_188
*1231 FILLER_0_15_200
*1232 FILLER_0_15_220
*1233 FILLER_0_15_225
*1234 FILLER_0_15_236
*1235 FILLER_0_15_257
*1236 FILLER_0_15_273
*1237 FILLER_0_15_279
*1238 FILLER_0_15_29
*1239 FILLER_0_15_291
*1240 FILLER_0_15_3
*1241 FILLER_0_15_303
*1242 FILLER_0_15_315
*1243 FILLER_0_15_33
*1244 FILLER_0_15_337
*1245 FILLER_0_15_349
*1246 FILLER_0_15_41
*1247 FILLER_0_15_45
*1248 FILLER_0_15_54
*1249 FILLER_0_15_57
*1250 FILLER_0_15_69
*1251 FILLER_0_15_84
*1252 FILLER_0_15_9
*1253 FILLER_0_16_100
*1254 FILLER_0_16_131
*1255 FILLER_0_16_139
*1256 FILLER_0_16_141
*1257 FILLER_0_16_15
*1258 FILLER_0_16_175
*1259 FILLER_0_16_179
*1260 FILLER_0_16_27
*1261 FILLER_0_16_275
*1262 FILLER_0_16_3
*1263 FILLER_0_16_305
*1264 FILLER_0_16_343
*1265 FILLER_0_16_40
*1266 FILLER_0_16_47
*1267 FILLER_0_16_59
*1268 FILLER_0_16_94
*1269 FILLER_0_17_105
*1270 FILLER_0_17_111
*1271 FILLER_0_17_113
*1272 FILLER_0_17_123
*1273 FILLER_0_17_139
*1274 FILLER_0_17_155
*1275 FILLER_0_17_159
*1276 FILLER_0_17_222
*1277 FILLER_0_17_233
*1278 FILLER_0_17_241
*1279 FILLER_0_17_251
*1280 FILLER_0_17_279
*1281 FILLER_0_17_281
*1282 FILLER_0_17_3
*1283 FILLER_0_17_309
*1284 FILLER_0_17_334
*1285 FILLER_0_17_337
*1286 FILLER_0_17_349
*1287 FILLER_0_17_38
*1288 FILLER_0_17_50
*1289 FILLER_0_17_57
*1290 FILLER_0_18_108
*1291 FILLER_0_18_120
*1292 FILLER_0_18_129
*1293 FILLER_0_18_138
*1294 FILLER_0_18_163
*1295 FILLER_0_18_173
*1296 FILLER_0_18_185
*1297 FILLER_0_18_193
*1298 FILLER_0_18_197
*1299 FILLER_0_18_232
*1300 FILLER_0_18_240
*1301 FILLER_0_18_246
*1302 FILLER_0_18_256
*1303 FILLER_0_18_273
*1304 FILLER_0_18_3
*1305 FILLER_0_18_301
*1306 FILLER_0_18_307
*1307 FILLER_0_18_309
*1308 FILLER_0_18_321
*1309 FILLER_0_18_327
*1310 FILLER_0_18_345
*1311 FILLER_0_18_45
*1312 FILLER_0_18_57
*1313 FILLER_0_18_69
*1314 FILLER_0_18_80
*1315 FILLER_0_18_85
*1316 FILLER_0_18_91
*1317 FILLER_0_19_101
*1318 FILLER_0_19_121
*1319 FILLER_0_19_15
*1320 FILLER_0_19_163
*1321 FILLER_0_19_167
*1322 FILLER_0_19_175
*1323 FILLER_0_19_189
*1324 FILLER_0_19_193
*1325 FILLER_0_19_200
*1326 FILLER_0_19_217
*1327 FILLER_0_19_225
*1328 FILLER_0_19_245
*1329 FILLER_0_19_257
*1330 FILLER_0_19_265
*1331 FILLER_0_19_274
*1332 FILLER_0_19_281
*1333 FILLER_0_19_293
*1334 FILLER_0_19_3
*1335 FILLER_0_19_305
*1336 FILLER_0_19_311
*1337 FILLER_0_19_329
*1338 FILLER_0_19_335
*1339 FILLER_0_19_337
*1340 FILLER_0_19_349
*1341 FILLER_0_19_38
*1342 FILLER_0_19_50
*1343 FILLER_0_19_60
*1344 FILLER_0_19_72
*1345 FILLER_0_19_84
*1346 FILLER_0_19_92
*1347 FILLER_0_1_107
*1348 FILLER_0_1_111
*1349 FILLER_0_1_113
*1350 FILLER_0_1_15
*1351 FILLER_0_1_155
*1352 FILLER_0_1_167
*1353 FILLER_0_1_169
*1354 FILLER_0_1_233
*1355 FILLER_0_1_241
*1356 FILLER_0_1_267
*1357 FILLER_0_1_27
*1358 FILLER_0_1_3
*1359 FILLER_0_1_312
*1360 FILLER_0_1_318
*1361 FILLER_0_1_335
*1362 FILLER_0_1_337
*1363 FILLER_0_1_349
*1364 FILLER_0_1_54
*1365 FILLER_0_1_57
*1366 FILLER_0_1_65
*1367 FILLER_0_20_107
*1368 FILLER_0_20_119
*1369 FILLER_0_20_131
*1370 FILLER_0_20_136
*1371 FILLER_0_20_141
*1372 FILLER_0_20_148
*1373 FILLER_0_20_156
*1374 FILLER_0_20_193
*1375 FILLER_0_20_197
*1376 FILLER_0_20_223
*1377 FILLER_0_20_227
*1378 FILLER_0_20_247
*1379 FILLER_0_20_251
*1380 FILLER_0_20_253
*1381 FILLER_0_20_272
*1382 FILLER_0_20_293
*1383 FILLER_0_20_3
*1384 FILLER_0_20_305
*1385 FILLER_0_20_326
*1386 FILLER_0_20_347
*1387 FILLER_0_20_43
*1388 FILLER_0_20_78
*1389 FILLER_0_20_85
*1390 FILLER_0_20_97
*1391 FILLER_0_21_122
*1392 FILLER_0_21_15
*1393 FILLER_0_21_151
*1394 FILLER_0_21_185
*1395 FILLER_0_21_193
*1396 FILLER_0_21_216
*1397 FILLER_0_21_225
*1398 FILLER_0_21_23
*1399 FILLER_0_21_261
*1400 FILLER_0_21_297
*1401 FILLER_0_21_3
*1402 FILLER_0_21_303
*1403 FILLER_0_21_321
*1404 FILLER_0_21_33
*1405 FILLER_0_21_333
*1406 FILLER_0_21_337
*1407 FILLER_0_21_349
*1408 FILLER_0_21_45
*1409 FILLER_0_21_57
*1410 FILLER_0_21_73
*1411 FILLER_0_21_91
*1412 FILLER_0_22_136
*1413 FILLER_0_22_15
*1414 FILLER_0_22_157
*1415 FILLER_0_22_184
*1416 FILLER_0_22_222
*1417 FILLER_0_22_23
*1418 FILLER_0_22_240
*1419 FILLER_0_22_244
*1420 FILLER_0_22_253
*1421 FILLER_0_22_265
*1422 FILLER_0_22_27
*1423 FILLER_0_22_289
*1424 FILLER_0_22_3
*1425 FILLER_0_22_304
*1426 FILLER_0_22_309
*1427 FILLER_0_22_321
*1428 FILLER_0_22_329
*1429 FILLER_0_22_347
*1430 FILLER_0_22_38
*1431 FILLER_0_22_50
*1432 FILLER_0_22_93
*1433 FILLER_0_23_110
*1434 FILLER_0_23_116
*1435 FILLER_0_23_128
*1436 FILLER_0_23_15
*1437 FILLER_0_23_153
*1438 FILLER_0_23_161
*1439 FILLER_0_23_167
*1440 FILLER_0_23_174
*1441 FILLER_0_23_186
*1442 FILLER_0_23_194
*1443 FILLER_0_23_210
*1444 FILLER_0_23_222
*1445 FILLER_0_23_225
*1446 FILLER_0_23_235
*1447 FILLER_0_23_248
*1448 FILLER_0_23_260
*1449 FILLER_0_23_278
*1450 FILLER_0_23_289
*1451 FILLER_0_23_293
*1452 FILLER_0_23_3
*1453 FILLER_0_23_311
*1454 FILLER_0_23_337
*1455 FILLER_0_23_349
*1456 FILLER_0_23_41
*1457 FILLER_0_23_53
*1458 FILLER_0_23_57
*1459 FILLER_0_23_63
*1460 FILLER_0_23_87
*1461 FILLER_0_23_99
*1462 FILLER_0_24_109
*1463 FILLER_0_24_121
*1464 FILLER_0_24_129
*1465 FILLER_0_24_138
*1466 FILLER_0_24_154
*1467 FILLER_0_24_166
*1468 FILLER_0_24_172
*1469 FILLER_0_24_181
*1470 FILLER_0_24_193
*1471 FILLER_0_24_197
*1472 FILLER_0_24_202
*1473 FILLER_0_24_214
*1474 FILLER_0_24_235
*1475 FILLER_0_24_261
*1476 FILLER_0_24_3
*1477 FILLER_0_24_302
*1478 FILLER_0_24_309
*1479 FILLER_0_24_328
*1480 FILLER_0_24_347
*1481 FILLER_0_24_35
*1482 FILLER_0_24_52
*1483 FILLER_0_24_64
*1484 FILLER_0_24_81
*1485 FILLER_0_24_85
*1486 FILLER_0_24_9
*1487 FILLER_0_24_97
*1488 FILLER_0_25_100
*1489 FILLER_0_25_109
*1490 FILLER_0_25_121
*1491 FILLER_0_25_127
*1492 FILLER_0_25_15
*1493 FILLER_0_25_160
*1494 FILLER_0_25_169
*1495 FILLER_0_25_199
*1496 FILLER_0_25_207
*1497 FILLER_0_25_260
*1498 FILLER_0_25_274
*1499 FILLER_0_25_298
*1500 FILLER_0_25_3
*1501 FILLER_0_25_310
*1502 FILLER_0_25_333
*1503 FILLER_0_25_337
*1504 FILLER_0_25_349
*1505 FILLER_0_25_48
*1506 FILLER_0_25_57
*1507 FILLER_0_25_65
*1508 FILLER_0_25_83
*1509 FILLER_0_26_135
*1510 FILLER_0_26_139
*1511 FILLER_0_26_15
*1512 FILLER_0_26_160
*1513 FILLER_0_26_197
*1514 FILLER_0_26_226
*1515 FILLER_0_26_25
*1516 FILLER_0_26_251
*1517 FILLER_0_26_261
*1518 FILLER_0_26_283
*1519 FILLER_0_26_3
*1520 FILLER_0_26_326
*1521 FILLER_0_26_344
*1522 FILLER_0_26_350
*1523 FILLER_0_26_36
*1524 FILLER_0_26_46
*1525 FILLER_0_26_58
*1526 FILLER_0_26_96
*1527 FILLER_0_27_106
*1528 FILLER_0_27_113
*1529 FILLER_0_27_125
*1530 FILLER_0_27_148
*1531 FILLER_0_27_15
*1532 FILLER_0_27_160
*1533 FILLER_0_27_191
*1534 FILLER_0_27_203
*1535 FILLER_0_27_211
*1536 FILLER_0_27_233
*1537 FILLER_0_27_251
*1538 FILLER_0_27_279
*1539 FILLER_0_27_281
*1540 FILLER_0_27_287
*1541 FILLER_0_27_294
*1542 FILLER_0_27_3
*1543 FILLER_0_27_300
*1544 FILLER_0_27_318
*1545 FILLER_0_27_337
*1546 FILLER_0_27_349
*1547 FILLER_0_27_38
*1548 FILLER_0_27_48
*1549 FILLER_0_27_85
*1550 FILLER_0_27_97
*1551 FILLER_0_28_110
*1552 FILLER_0_28_122
*1553 FILLER_0_28_134
*1554 FILLER_0_28_148
*1555 FILLER_0_28_15
*1556 FILLER_0_28_154
*1557 FILLER_0_28_162
*1558 FILLER_0_28_195
*1559 FILLER_0_28_197
*1560 FILLER_0_28_24
*1561 FILLER_0_28_242
*1562 FILLER_0_28_250
*1563 FILLER_0_28_253
*1564 FILLER_0_28_265
*1565 FILLER_0_28_269
*1566 FILLER_0_28_283
*1567 FILLER_0_28_29
*1568 FILLER_0_28_295
*1569 FILLER_0_28_3
*1570 FILLER_0_28_309
*1571 FILLER_0_28_321
*1572 FILLER_0_28_329
*1573 FILLER_0_28_347
*1574 FILLER_0_28_49
*1575 FILLER_0_28_57
*1576 FILLER_0_28_67
*1577 FILLER_0_28_71
*1578 FILLER_0_28_77
*1579 FILLER_0_28_83
*1580 FILLER_0_28_85
*1581 FILLER_0_28_93
*1582 FILLER_0_29_111
*1583 FILLER_0_29_113
*1584 FILLER_0_29_125
*1585 FILLER_0_29_129
*1586 FILLER_0_29_152
*1587 FILLER_0_29_161
*1588 FILLER_0_29_167
*1589 FILLER_0_29_169
*1590 FILLER_0_29_177
*1591 FILLER_0_29_186
*1592 FILLER_0_29_198
*1593 FILLER_0_29_210
*1594 FILLER_0_29_245
*1595 FILLER_0_29_257
*1596 FILLER_0_29_265
*1597 FILLER_0_29_288
*1598 FILLER_0_29_296
*1599 FILLER_0_29_3
*1600 FILLER_0_29_308
*1601 FILLER_0_29_316
*1602 FILLER_0_29_337
*1603 FILLER_0_29_349
*1604 FILLER_0_29_47
*1605 FILLER_0_29_55
*1606 FILLER_0_29_57
*1607 FILLER_0_29_75
*1608 FILLER_0_29_83
*1609 FILLER_0_29_97
*1610 FILLER_0_2_15
*1611 FILLER_0_2_160
*1612 FILLER_0_2_180
*1613 FILLER_0_2_188
*1614 FILLER_0_2_197
*1615 FILLER_0_2_212
*1616 FILLER_0_2_231
*1617 FILLER_0_2_258
*1618 FILLER_0_2_27
*1619 FILLER_0_2_29
*1620 FILLER_0_2_3
*1621 FILLER_0_2_333
*1622 FILLER_0_2_345
*1623 FILLER_0_2_63
*1624 FILLER_0_2_71
*1625 FILLER_0_2_85
*1626 FILLER_0_30_105
*1627 FILLER_0_30_118
*1628 FILLER_0_30_130
*1629 FILLER_0_30_138
*1630 FILLER_0_30_141
*1631 FILLER_0_30_15
*1632 FILLER_0_30_152
*1633 FILLER_0_30_164
*1634 FILLER_0_30_172
*1635 FILLER_0_30_182
*1636 FILLER_0_30_194
*1637 FILLER_0_30_197
*1638 FILLER_0_30_213
*1639 FILLER_0_30_229
*1640 FILLER_0_30_241
*1641 FILLER_0_30_249
*1642 FILLER_0_30_253
*1643 FILLER_0_30_3
*1644 FILLER_0_30_301
*1645 FILLER_0_30_307
*1646 FILLER_0_30_309
*1647 FILLER_0_30_34
*1648 FILLER_0_30_347
*1649 FILLER_0_30_46
*1650 FILLER_0_30_58
*1651 FILLER_0_30_80
*1652 FILLER_0_30_93
*1653 FILLER_0_31_113
*1654 FILLER_0_31_120
*1655 FILLER_0_31_133
*1656 FILLER_0_31_15
*1657 FILLER_0_31_155
*1658 FILLER_0_31_167
*1659 FILLER_0_31_189
*1660 FILLER_0_31_197
*1661 FILLER_0_31_218
*1662 FILLER_0_31_225
*1663 FILLER_0_31_230
*1664 FILLER_0_31_236
*1665 FILLER_0_31_240
*1666 FILLER_0_31_248
*1667 FILLER_0_31_267