*SPEF "ieee 1481-1999"
*DESIGN "tt_um_wokwi_370533670565165057"
*DATE "11:11:11 Fri 11 11, 1111"
*VENDOR "OpenRCX"
*PROGRAM "Parallel Extraction"
*VERSION "1.0"
*DESIGN_FLOW "NAME_SCOPE LOCAL" "PIN_CAP NONE"
*DIVIDER /
*DELIMITER :
*BUS_DELIMITER []
*T_UNIT 1 NS
*C_UNIT 1 PF
*R_UNIT 1 OHM
*L_UNIT 1 HENRY

*NAME_MAP
*3 clk
*4 ena
*5 rst_n
*6 ui_in[0]
*7 ui_in[1]
*8 ui_in[2]
*9 ui_in[3]
*10 ui_in[4]
*11 ui_in[5]
*12 ui_in[6]
*13 ui_in[7]
*14 uio_in[0]
*15 uio_in[1]
*16 uio_in[2]
*17 uio_in[3]
*18 uio_in[4]
*19 uio_in[5]
*20 uio_in[6]
*21 uio_in[7]
*22 net11
*23 net12
*24 net13
*25 net14
*26 net15
*27 net16
*28 net17
*29 net18
*30 net19
*31 net20
*32 net21
*33 net22
*34 net23
*35 net24
*36 net25
*37 net26
*38 uo_out[0]
*39 uo_out[1]
*40 uo_out[2]
*41 uo_out[3]
*42 uo_out[4]
*43 uo_out[5]
*44 uo_out[6]
*45 uo_out[7]
*46 _000_
*47 _001_
*48 _002_
*49 _003_
*50 _004_
*51 _005_
*52 _006_
*53 _007_
*54 _008_
*55 _009_
*56 _010_
*57 _011_
*58 _012_
*59 _013_
*60 _014_
*61 _015_
*62 _016_
*63 _017_
*64 _018_
*65 _019_
*66 _020_
*67 _021_
*68 _022_
*69 _023_
*70 _024_
*71 _025_
*72 _026_
*73 _027_
*74 _028_
*75 _029_
*76 _030_
*77 _031_
*78 _032_
*79 _033_
*80 _034_
*81 _035_
*82 _036_
*83 _037_
*84 _038_
*85 _039_
*86 _040_
*87 _041_
*88 _042_
*89 _043_
*90 _044_
*91 _045_
*92 _046_
*93 _047_
*94 _048_
*95 _049_
*96 _050_
*97 _051_
*98 _052_
*99 _053_
*100 _054_
*101 _055_
*102 _056_
*103 _057_
*104 _058_
*105 _059_
*106 _060_
*107 _061_
*108 _062_
*109 _063_
*110 _064_
*111 _065_
*112 _066_
*113 _067_
*114 _068_
*115 _069_
*116 _070_
*117 _071_
*118 _072_
*119 _073_
*120 _074_
*121 _075_
*122 _076_
*123 _077_
*124 _078_
*125 _079_
*126 _080_
*127 _081_
*128 _082_
*129 _083_
*130 _084_
*131 _085_
*132 _086_
*133 _087_
*134 _088_
*135 _089_
*136 _090_
*137 _091_
*138 _092_
*139 _093_
*140 _094_
*141 _095_
*142 _096_
*143 _097_
*144 _098_
*145 _099_
*146 _100_
*147 _101_
*148 _102_
*149 _103_
*150 _104_
*151 _105_
*152 _106_
*153 _107_
*154 _108_
*155 _109_
*156 _110_
*157 _111_
*158 _112_
*159 _113_
*160 _114_
*161 _115_
*162 _116_
*163 _117_
*164 _118_
*165 _119_
*166 _120_
*167 _121_
*168 _122_
*169 _123_
*170 _124_
*171 _125_
*172 _126_
*173 _127_
*174 _128_
*175 _129_
*176 _130_
*177 _131_
*178 _132_
*179 _133_
*180 _134_
*181 _135_
*182 _136_
*183 _137_
*184 _138_
*185 _139_
*186 _140_
*187 _141_
*188 _142_
*189 _143_
*190 _144_
*191 _145_
*192 _146_
*193 _147_
*194 _148_
*195 _149_
*196 _150_
*197 _151_
*198 _152_
*199 _153_
*200 _154_
*201 _155_
*202 _156_
*203 _157_
*204 _158_
*205 _159_
*206 _160_
*207 _161_
*208 _162_
*209 _163_
*210 _164_
*211 _165_
*212 _166_
*213 _167_
*214 _168_
*215 _169_
*216 _170_
*217 _171_
*218 _172_
*219 _173_
*220 _174_
*221 _175_
*222 _176_
*223 _177_
*224 _178_
*225 _179_
*226 _180_
*227 _181_
*228 _182_
*229 _183_
*230 _184_
*231 _185_
*232 _186_
*233 _187_
*234 _188_
*235 _189_
*236 _190_
*237 _191_
*238 _192_
*239 _193_
*240 _194_
*241 _195_
*242 _196_
*243 _197_
*244 _198_
*245 _199_
*246 _200_
*247 _201_
*248 _202_
*249 _203_
*250 _204_
*251 _205_
*252 _206_
*253 _207_
*254 _208_
*255 _209_
*256 _210_
*257 _211_
*258 _212_
*259 _213_
*260 _214_
*261 _215_
*262 _216_
*263 _217_
*264 _218_
*265 _219_
*266 _220_
*267 _221_
*268 _222_
*269 _223_
*270 _224_
*271 _225_
*272 _226_
*273 _227_
*274 _228_
*275 _229_
*276 _230_
*277 _231_
*278 _232_
*279 _233_
*280 _234_
*281 _235_
*282 _236_
*283 _237_
*284 _238_
*285 _239_
*286 _240_
*287 _241_
*288 _242_
*289 _243_
*290 _244_
*291 _245_
*292 _246_
*293 _247_
*294 _248_
*295 _249_
*296 and10\.a
*297 and10\.b
*298 and100\.b
*299 and101\.a
*300 and101\.b
*301 and103\.b
*302 and105\.b
*303 and107\.a
*304 and107\.b
*305 and108\.a
*306 and108\.b
*307 and110\.a
*308 and110\.b
*309 and111\.a
*310 and111\.b
*311 and112\.a
*312 and112\.b
*313 and116\.a
*314 and116\.b
*315 and119\.a
*316 and119\.b
*317 and120\.a
*318 and120\.b
*319 and121\.a
*320 and121\.b
*321 and122\.a
*322 and122\.b
*323 and123\.a
*324 and123\.b
*325 and129\.a
*326 and129\.b
*327 and130\.a
*328 and130\.b
*329 and131\.a
*330 and131\.b
*331 and132\.a
*332 and132\.b
*333 and133\.a
*334 and133\.b
*335 and134\.a
*336 and134\.b
*337 and140\.a
*338 and140\.b
*339 and141\.a
*340 and141\.b
*341 and142\.a
*342 and142\.b
*343 and143\.a
*344 and143\.b
*345 and144\.a
*346 and144\.b
*347 and145\.a
*348 and145\.b
*349 and152\.a
*350 and153\.a
*351 and153\.b
*352 and157\.a
*353 and158\.a
*354 and163\.a
*355 and170\.a
*356 and171\.a
*357 and171\.b
*358 and175\.a
*359 and176\.a
*360 and181\.a
*361 and190\.out
*362 and197\.out
*363 and198\.b
*364 and198\.out
*365 and199\.a
*366 and199\.b
*367 and200\.out
*368 and202\.a
*369 and203\.a
*370 and203\.b
*371 and207\.a
*372 and209\.a
*373 and212\.out
*374 and214\.out
*375 and216\.out
*376 and219\.a
*377 and220\.b
*378 and85\.b
*379 and87\.b
*380 and89\.b
*381 and91\.b
*382 and93\.b
*383 and95\.b
*384 and97\.b
*385 and99\.b
*386 flop1\.d
*387 flop10\.d
*388 flop11\.d
*389 flop12\.d
*390 flop13\.d
*391 flop14\.d
*392 flop15\.d
*393 flop16\.d
*394 flop17\.d
*395 flop18\.d
*396 flop19\.d
*397 flop2\.d
*398 flop20\.d
*399 flop21\.d
*400 flop22\.d
*401 flop23\.d
*402 flop24\.d
*403 flop25\.d
*404 flop26\.d
*405 flop27\.d
*406 flop28\.d
*407 flop29\.d
*408 flop3\.d
*409 flop30\.d
*410 flop31\.d
*411 flop32\.d
*412 flop33\.d
*413 flop34\.d
*414 flop35\.d
*415 flop36\.d
*416 flop37\.d
*417 flop38\.d
*418 flop39\.d
*419 flop4\.d
*420 flop40\.d
*421 flop41\.d
*422 flop42\.d
*423 flop43\.d
*424 flop44\.d
*425 flop45\.d
*426 flop46\.d
*427 flop47\.d
*428 flop48\.d
*429 flop49\.d
*430 flop5\.d
*431 flop50\.d
*432 flop51\.d
*433 flop52\.d
*434 flop53\.d
*435 flop54\.d
*436 flop55\.d
*437 flop56\.d
*438 flop57\.d
*439 flop58\.d
*440 flop59\.d
*441 flop6\.d
*442 flop60\.d
*443 flop60\.q
*444 flop61\.d
*445 flop62\.d
*446 flop63\.d
*447 flop64\.d
*448 flop65\.d
*449 flop66\.d
*450 flop67\.d
*451 flop68\.d
*452 flop69\.d
*453 flop7\.d
*454 flop70\.d
*455 flop71\.d
*456 flop72\.d
*457 flop73\.clk
*458 flop76\.d
*459 flop77\.d
*460 flop79\.d
*461 flop8\.d
*462 flop80\.d
*463 flop81\.d
*464 flop9\.d
*465 mux1\.sel
*466 net1
*467 net10
*468 net2
*469 net3
*470 net4
*471 net5
*472 net6
*473 net7
*474 net8
*475 net9
*476 or105\.b
*477 or74\.out
*478 FILLER_0_0_109
*479 FILLER_0_0_113
*480 FILLER_0_0_125
*481 FILLER_0_0_137
*482 FILLER_0_0_141
*483 FILLER_0_0_15
*484 FILLER_0_0_153
*485 FILLER_0_0_165
*486 FILLER_0_0_169
*487 FILLER_0_0_181
*488 FILLER_0_0_193
*489 FILLER_0_0_197
*490 FILLER_0_0_209
*491 FILLER_0_0_221
*492 FILLER_0_0_225
*493 FILLER_0_0_237
*494 FILLER_0_0_249
*495 FILLER_0_0_253
*496 FILLER_0_0_265
*497 FILLER_0_0_27
*498 FILLER_0_0_277
*499 FILLER_0_0_281
*500 FILLER_0_0_29
*501 FILLER_0_0_293
*502 FILLER_0_0_3
*503 FILLER_0_0_305
*504 FILLER_0_0_309
*505 FILLER_0_0_321
*506 FILLER_0_0_333
*507 FILLER_0_0_337
*508 FILLER_0_0_349
*509 FILLER_0_0_41
*510 FILLER_0_0_53
*511 FILLER_0_0_57
*512 FILLER_0_0_69
*513 FILLER_0_0_81
*514 FILLER_0_0_85
*515 FILLER_0_0_97
*516 FILLER_0_10_109
*517 FILLER_0_10_121
*518 FILLER_0_10_133
*519 FILLER_0_10_139
*520 FILLER_0_10_141
*521 FILLER_0_10_15
*522 FILLER_0_10_153
*523 FILLER_0_10_165
*524 FILLER_0_10_177
*525 FILLER_0_10_189
*526 FILLER_0_10_195
*527 FILLER_0_10_197
*528 FILLER_0_10_209
*529 FILLER_0_10_221
*530 FILLER_0_10_233
*531 FILLER_0_10_245
*532 FILLER_0_10_251
*533 FILLER_0_10_253
*534 FILLER_0_10_265
*535 FILLER_0_10_27
*536 FILLER_0_10_277
*537 FILLER_0_10_289
*538 FILLER_0_10_29
*539 FILLER_0_10_3
*540 FILLER_0_10_301
*541 FILLER_0_10_307
*542 FILLER_0_10_309
*543 FILLER_0_10_321
*544 FILLER_0_10_333
*545 FILLER_0_10_345
*546 FILLER_0_10_41
*547 FILLER_0_10_53
*548 FILLER_0_10_65
*549 FILLER_0_10_77
*550 FILLER_0_10_83
*551 FILLER_0_10_85
*552 FILLER_0_10_97
*553 FILLER_0_11_105
*554 FILLER_0_11_111
*555 FILLER_0_11_113
*556 FILLER_0_11_125
*557 FILLER_0_11_137
*558 FILLER_0_11_149
*559 FILLER_0_11_15
*560 FILLER_0_11_161
*561 FILLER_0_11_167
*562 FILLER_0_11_169
*563 FILLER_0_11_181
*564 FILLER_0_11_193
*565 FILLER_0_11_205
*566 FILLER_0_11_217
*567 FILLER_0_11_223
*568 FILLER_0_11_225
*569 FILLER_0_11_237
*570 FILLER_0_11_249
*571 FILLER_0_11_261
*572 FILLER_0_11_27
*573 FILLER_0_11_273
*574 FILLER_0_11_279
*575 FILLER_0_11_281
*576 FILLER_0_11_293
*577 FILLER_0_11_3
*578 FILLER_0_11_305
*579 FILLER_0_11_317
*580 FILLER_0_11_329
*581 FILLER_0_11_335
*582 FILLER_0_11_337
*583 FILLER_0_11_349
*584 FILLER_0_11_39
*585 FILLER_0_11_51
*586 FILLER_0_11_55
*587 FILLER_0_11_57
*588 FILLER_0_11_69
*589 FILLER_0_11_81
*590 FILLER_0_11_93
*591 FILLER_0_12_109
*592 FILLER_0_12_121
*593 FILLER_0_12_133
*594 FILLER_0_12_139
*595 FILLER_0_12_141
*596 FILLER_0_12_15
*597 FILLER_0_12_153
*598 FILLER_0_12_165
*599 FILLER_0_12_177
*600 FILLER_0_12_189
*601 FILLER_0_12_195
*602 FILLER_0_12_197
*603 FILLER_0_12_209
*604 FILLER_0_12_221
*605 FILLER_0_12_233
*606 FILLER_0_12_245
*607 FILLER_0_12_251
*608 FILLER_0_12_253
*609 FILLER_0_12_265
*610 FILLER_0_12_27
*611 FILLER_0_12_277
*612 FILLER_0_12_289
*613 FILLER_0_12_29
*614 FILLER_0_12_3
*615 FILLER_0_12_301
*616 FILLER_0_12_307
*617 FILLER_0_12_309
*618 FILLER_0_12_321
*619 FILLER_0_12_333
*620 FILLER_0_12_345
*621 FILLER_0_12_41
*622 FILLER_0_12_53
*623 FILLER_0_12_65
*624 FILLER_0_12_77
*625 FILLER_0_12_83
*626 FILLER_0_12_85
*627 FILLER_0_12_97
*628 FILLER_0_13_105
*629 FILLER_0_13_111
*630 FILLER_0_13_113
*631 FILLER_0_13_125
*632 FILLER_0_13_137
*633 FILLER_0_13_149
*634 FILLER_0_13_15
*635 FILLER_0_13_161
*636 FILLER_0_13_167
*637 FILLER_0_13_169
*638 FILLER_0_13_181
*639 FILLER_0_13_193
*640 FILLER_0_13_205
*641 FILLER_0_13_217
*642 FILLER_0_13_223
*643 FILLER_0_13_225
*644 FILLER_0_13_237
*645 FILLER_0_13_249
*646 FILLER_0_13_261
*647 FILLER_0_13_27
*648 FILLER_0_13_273
*649 FILLER_0_13_279
*650 FILLER_0_13_281
*651 FILLER_0_13_293
*652 FILLER_0_13_3
*653 FILLER_0_13_305
*654 FILLER_0_13_317
*655 FILLER_0_13_329
*656 FILLER_0_13_335
*657 FILLER_0_13_337
*658 FILLER_0_13_349
*659 FILLER_0_13_39
*660 FILLER_0_13_51
*661 FILLER_0_13_55
*662 FILLER_0_13_57
*663 FILLER_0_13_69
*664 FILLER_0_13_81
*665 FILLER_0_13_93
*666 FILLER_0_14_109
*667 FILLER_0_14_121
*668 FILLER_0_14_133
*669 FILLER_0_14_139
*670 FILLER_0_14_141
*671 FILLER_0_14_15
*672 FILLER_0_14_153
*673 FILLER_0_14_165
*674 FILLER_0_14_177
*675 FILLER_0_14_189
*676 FILLER_0_14_195
*677 FILLER_0_14_197
*678 FILLER_0_14_209
*679 FILLER_0_14_221
*680 FILLER_0_14_233
*681 FILLER_0_14_245
*682 FILLER_0_14_251
*683 FILLER_0_14_253
*684 FILLER_0_14_265
*685 FILLER_0_14_27
*686 FILLER_0_14_277
*687 FILLER_0_14_289
*688 FILLER_0_14_29
*689 FILLER_0_14_3
*690 FILLER_0_14_301
*691 FILLER_0_14_307
*692 FILLER_0_14_309
*693 FILLER_0_14_321
*694 FILLER_0_14_333
*695 FILLER_0_14_345
*696 FILLER_0_14_41
*697 FILLER_0_14_53
*698 FILLER_0_14_65
*699 FILLER_0_14_77
*700 FILLER_0_14_83
*701 FILLER_0_14_85
*702 FILLER_0_14_97
*703 FILLER_0_15_105
*704 FILLER_0_15_111
*705 FILLER_0_15_113
*706 FILLER_0_15_125
*707 FILLER_0_15_137
*708 FILLER_0_15_149
*709 FILLER_0_15_15
*710 FILLER_0_15_161
*711 FILLER_0_15_167
*712 FILLER_0_15_169
*713 FILLER_0_15_181
*714 FILLER_0_15_193
*715 FILLER_0_15_205
*716 FILLER_0_15_217
*717 FILLER_0_15_223
*718 FILLER_0_15_225
*719 FILLER_0_15_237
*720 FILLER_0_15_249
*721 FILLER_0_15_261
*722 FILLER_0_15_27
*723 FILLER_0_15_273
*724 FILLER_0_15_279
*725 FILLER_0_15_281
*726 FILLER_0_15_293
*727 FILLER_0_15_3
*728 FILLER_0_15_305
*729 FILLER_0_15_317
*730 FILLER_0_15_329
*731 FILLER_0_15_335
*732 FILLER_0_15_337
*733 FILLER_0_15_349
*734 FILLER_0_15_39
*735 FILLER_0_15_51
*736 FILLER_0_15_55
*737 FILLER_0_15_57
*738 FILLER_0_15_69
*739 FILLER_0_15_81
*740 FILLER_0_15_93
*741 FILLER_0_16_109
*742 FILLER_0_16_121
*743 FILLER_0_16_133
*744 FILLER_0_16_139
*745 FILLER_0_16_141
*746 FILLER_0_16_15
*747 FILLER_0_16_153
*748 FILLER_0_16_165
*749 FILLER_0_16_177
*750 FILLER_0_16_183
*751 FILLER_0_16_195
*752 FILLER_0_16_197
*753 FILLER_0_16_209
*754 FILLER_0_16_234
*755 FILLER_0_16_246
*756 FILLER_0_16_253
*757 FILLER_0_16_261
*758 FILLER_0_16_266
*759 FILLER_0_16_27
*760 FILLER_0_16_278
*761 FILLER_0_16_29
*762 FILLER_0_16_290
*763 FILLER_0_16_3
*764 FILLER_0_16_302
*765 FILLER_0_16_309
*766 FILLER_0_16_321
*767 FILLER_0_16_333
*768 FILLER_0_16_345
*769 FILLER_0_16_41
*770 FILLER_0_16_53
*771 FILLER_0_16_65
*772 FILLER_0_16_77
*773 FILLER_0_16_83
*774 FILLER_0_16_85
*775 FILLER_0_16_97
*776 FILLER_0_17_105
*777 FILLER_0_17_111
*778 FILLER_0_17_113
*779 FILLER_0_17_125
*780 FILLER_0_17_137
*781 FILLER_0_17_149
*782 FILLER_0_17_15
*783 FILLER_0_17_161
*784 FILLER_0_17_167
*785 FILLER_0_17_169
*786 FILLER_0_17_173
*787 FILLER_0_17_201
*788 FILLER_0_17_209
*789 FILLER_0_17_223
*790 FILLER_0_17_237
*791 FILLER_0_17_249
*792 FILLER_0_17_257
*793 FILLER_0_17_27
*794 FILLER_0_17_278
*795 FILLER_0_17_281
*796 FILLER_0_17_293
*797 FILLER_0_17_3
*798 FILLER_0_17_305
*799 FILLER_0_17_317
*800 FILLER_0_17_329
*801 FILLER_0_17_335
*802 FILLER_0_17_337
*803 FILLER_0_17_349
*804 FILLER_0_17_39
*805 FILLER_0_17_51
*806 FILLER_0_17_55
*807 FILLER_0_17_57
*808 FILLER_0_17_69
*809 FILLER_0_17_81
*810 FILLER_0_17_93
*811 FILLER_0_18_124
*812 FILLER_0_18_136
*813 FILLER_0_18_15
*814 FILLER_0_18_161
*815 FILLER_0_18_169
*816 FILLER_0_18_193
*817 FILLER_0_18_197
*818 FILLER_0_18_205
*819 FILLER_0_18_238
*820 FILLER_0_18_246
*821 FILLER_0_18_253
*822 FILLER_0_18_27
*823 FILLER_0_18_285
*824 FILLER_0_18_29
*825 FILLER_0_18_297
*826 FILLER_0_18_3
*827 FILLER_0_18_301
*828 FILLER_0_18_309
*829 FILLER_0_18_321
*830 FILLER_0_18_333
*831 FILLER_0_18_345
*832 FILLER_0_18_41
*833 FILLER_0_18_53
*834 FILLER_0_18_65
*835 FILLER_0_18_77
*836 FILLER_0_18_83
*837 FILLER_0_18_85
*838 FILLER_0_19_111
*839 FILLER_0_19_15
*840 FILLER_0_19_160
*841 FILLER_0_19_169
*842 FILLER_0_19_173
*843 FILLER_0_19_193
*844 FILLER_0_19_205
*845 FILLER_0_19_213
*846 FILLER_0_19_218
*847 FILLER_0_19_231
*848 FILLER_0_19_243
*849 FILLER_0_19_255
*850 FILLER_0_19_259
*851 FILLER_0_19_27
*852 FILLER_0_19_279
*853 FILLER_0_19_281
*854 FILLER_0_19_289
*855 FILLER_0_19_3
*856 FILLER_0_19_318
*857 FILLER_0_19_322
*858 FILLER_0_19_331
*859 FILLER_0_19_335
*860 FILLER_0_19_337
*861 FILLER_0_19_349
*862 FILLER_0_19_39
*863 FILLER_0_19_51
*864 FILLER_0_19_55
*865 FILLER_0_19_57
*866 FILLER_0_19_69
*867 FILLER_0_19_81
*868 FILLER_0_19_93
*869 FILLER_0_1_105
*870 FILLER_0_1_111
*871 FILLER_0_1_113
*872 FILLER_0_1_125
*873 FILLER_0_1_137
*874 FILLER_0_1_149
*875 FILLER_0_1_15
*876 FILLER_0_1_161
*877 FILLER_0_1_167
*878 FILLER_0_1_169
*879 FILLER_0_1_181
*880 FILLER_0_1_193
*881 FILLER_0_1_205
*882 FILLER_0_1_217
*883 FILLER_0_1_223
*884 FILLER_0_1_225
*885 FILLER_0_1_237
*886 FILLER_0_1_249
*887 FILLER_0_1_261
*888 FILLER_0_1_27
*889 FILLER_0_1_273
*890 FILLER_0_1_279
*891 FILLER_0_1_281
*892 FILLER_0_1_293
*893 FILLER_0_1_3
*894 FILLER_0_1_305
*895 FILLER_0_1_317
*896 FILLER_0_1_329
*897 FILLER_0_1_335
*898 FILLER_0_1_337
*899 FILLER_0_1_349
*900 FILLER_0_1_39
*901 FILLER_0_1_51
*902 FILLER_0_1_55
*903 FILLER_0_1_57
*904 FILLER_0_1_69
*905 FILLER_0_1_81
*906 FILLER_0_1_93
*907 FILLER_0_20_125
*908 FILLER_0_20_137
*909 FILLER_0_20_144
*910 FILLER_0_20_15
*911 FILLER_0_20_162
*912 FILLER_0_20_170
*913 FILLER_0_20_197
*914 FILLER_0_20_209
*915 FILLER_0_20_232
*916 FILLER_0_20_244
*917 FILLER_0_20_253
*918 FILLER_0_20_27
*919 FILLER_0_20_282
*920 FILLER_0_20_29
*921 FILLER_0_20_290
*922 FILLER_0_20_294
*923 FILLER_0_20_3
*924 FILLER_0_20_300
*925 FILLER_0_20_315
*926 FILLER_0_20_345
*927 FILLER_0_20_41
*928 FILLER_0_20_53
*929 FILLER_0_20_65
*930 FILLER_0_20_77
*931 FILLER_0_20_83
*932 FILLER_0_20_85
*933 FILLER_0_20_93
*934 FILLER_0_21_107
*935 FILLER_0_21_111
*936 FILLER_0_21_119
*937 FILLER_0_21_131
*938 FILLER_0_21_143
*939 FILLER_0_21_15
*940 FILLER_0_21_152
*941 FILLER_0_21_160
*942 FILLER_0_21_169
*943 FILLER_0_21_177
*944 FILLER_0_21_191
*945 FILLER_0_21_203
*946 FILLER_0_21_225
*947 FILLER_0_21_232
*948 FILLER_0_21_244
*949 FILLER_0_21_250
*950 FILLER_0_21_27
*951 FILLER_0_21_277
*952 FILLER_0_21_281
*953 FILLER_0_21_289
*954 FILLER_0_21_295
*955 FILLER_0_21_3
*956 FILLER_0_21_317
*957 FILLER_0_21_323
*958 FILLER_0_21_334
*959 FILLER_0_21_337
*960 FILLER_0_21_349
*961 FILLER_0_21_39
*962 FILLER_0_21_51
*963 FILLER_0_21_55
*964 FILLER_0_21_57
*965 FILLER_0_21_69
*966 FILLER_0_21_81
*967 FILLER_0_21_93
*968 FILLER_0_22_103
*969 FILLER_0_22_115
*970 FILLER_0_22_127
*971 FILLER_0_22_139
*972 FILLER_0_22_141
*973 FILLER_0_22_15
*974 FILLER_0_22_153
*975 FILLER_0_22_165
*976 FILLER_0_22_179
*977 FILLER_0_22_191
*978 FILLER_0_22_195
*979 FILLER_0_22_197
*980 FILLER_0_22_205
*981 FILLER_0_22_238
*982 FILLER_0_22_250
*983 FILLER_0_22_253
*984 FILLER_0_22_27
*985 FILLER_0_22_276
*986 FILLER_0_22_29
*987 FILLER_0_22_291
*988 FILLER_0_22_3
*989 FILLER_0_22_307
*990 FILLER_0_22_309
*991 FILLER_0_22_321
*992 FILLER_0_22_327
*993 FILLER_0_22_349
*994 FILLER_0_22_41
*995 FILLER_0_22_53
*996 FILLER_0_22_78
*997 FILLER_0_22_85
*998 FILLER_0_23_109
*999 FILLER_0_23_123
*1000 FILLER_0_23_128
*1001 FILLER_0_23_15
*1002 FILLER_0_23_169
*1003 FILLER_0_23_175
*1004 FILLER_0_23_192
*1005 FILLER_0_23_204
*1006 FILLER_0_23_213
*1007 FILLER_0_23_221
*1008 FILLER_0_23_231
*1009 FILLER_0_23_243
*1010 FILLER_0_23_255
*1011 FILLER_0_23_263
*1012 FILLER_0_23_27
*1013 FILLER_0_23_276
*1014 FILLER_0_23_281
*1015 FILLER_0_23_293
*1016 FILLER_0_23_3
*1017 FILLER_0_23_302
*1018 FILLER_0_23_334
*1019 FILLER_0_23_343
*1020 FILLER_0_23_39
*1021 FILLER_0_23_45
*1022 FILLER_0_23_85
*1023 FILLER_0_23_97
*1024 FILLER_0_24_138
*1025 FILLER_0_24_141
*1026 FILLER_0_24_147
*1027 FILLER_0_24_15
*1028 FILLER_0_24_158
*1029 FILLER_0_24_166
*1030 FILLER_0_24_176
*1031 FILLER_0_24_195
*1032 FILLER_0_24_197
*1033 FILLER_0_24_205
*1034 FILLER_0_24_238
*1035 FILLER_0_24_250
*1036 FILLER_0_24_253
*1037 FILLER_0_24_265
*1038 FILLER_0_24_27
*1039 FILLER_0_24_279
*1040 FILLER_0_24_283
*1041 FILLER_0_24_29
*1042 FILLER_0_24_290
*1043 FILLER_0_24_3
*1044 FILLER_0_24_302
*1045 FILLER_0_24_309
*1046 FILLER_0_24_338
*1047 FILLER_0_24_350
*1048 FILLER_0_24_41
*1049 FILLER_0_24_49
*1050 FILLER_0_24_66
*1051 FILLER_0_24_74
*1052 FILLER_0_24_82
*1053 FILLER_0_24_85
*1054 FILLER_0_24_97
*1055 FILLER_0_25_116
*1056 FILLER_0_25_124
*1057 FILLER_0_25_129
*1058 FILLER_0_25_137
*1059 FILLER_0_25_15
*1060 FILLER_0_25_163
*1061 FILLER_0_25_167
*1062 FILLER_0_25_180
*1063 FILLER_0_25_200
*1064 FILLER_0_25_212
*1065 FILLER_0_25_225
*1066 FILLER_0_25_239
*1067 FILLER_0_25_247
*1068 FILLER_0_25_251
*1069 FILLER_0_25_263
*1070 FILLER_0_25_27
*1071 FILLER_0_25_279
*1072 FILLER_0_25_287
*1073 FILLER_0_25_299
*1074 FILLER_0_25_3
*1075 FILLER_0_25_305
*1076 FILLER_0_25_323
*1077 FILLER_0_25_330
*1078 FILLER_0_25_337
*1079 FILLER_0_25_349
*1080 FILLER_0_25_39
*1081 FILLER_0_25_83
*1082 FILLER_0_25_91
*1083 FILLER_0_26_115
*1084 FILLER_0_26_123
*1085 FILLER_0_26_135
*1086 FILLER_0_26_139
*1087 FILLER_0_26_141
*1088 FILLER_0_26_15
*1089 FILLER_0_26_153
*1090 FILLER_0_26_165
*1091 FILLER_0_26_188
*1092 FILLER_0_26_197
*1093 FILLER_0_26_209
*1094 FILLER_0_26_234
*1095 FILLER_0_26_242
*1096 FILLER_0_26_248
*1097 FILLER_0_26_263
*1098 FILLER_0_26_27
*1099 FILLER_0_26_29
*1100 FILLER_0_26_292
*1101 FILLER_0_26_3
*1102 FILLER_0_26_304
*1103 FILLER_0_26_317
*1104 FILLER_0_26_348
*1105 FILLER_0_26_41
*1106 FILLER_0_26_77
*1107 FILLER_0_26_83
*1108 FILLER_0_26_88
*1109 FILLER_0_27_102
*1110 FILLER_0_27_110
*1111 FILLER_0_27_113
*1112 FILLER_0_27_119
*1113 FILLER_0_27_131
*1114 FILLER_0_27_143
*1115 FILLER_0_27_154
*1116 FILLER_0_27_162
*1117 FILLER_0_27_175
*1118 FILLER_0_27_189
*1119 FILLER_0_27_248
*1120 FILLER_0_27_254
*1121 FILLER_0_27_277
*1122 FILLER_0_27_281
*1123 FILLER_0_27_293
*1124 FILLER_0_27_3
*1125 FILLER_0_27_308
*1126 FILLER_0_27_312
*1127 FILLER_0_27_319
*1128 FILLER_0_27_331
*1129 FILLER_0_27_335
*1130 FILLER_0_27_343
*1131 FILLER_0_27_35
*1132 FILLER_0_27_47
*1133 FILLER_0_27_55
*1134 FILLER_0_27_57
*1135 FILLER_0_27_61
*1136 FILLER_0_27_68
*1137 FILLER_0_27_80
*1138 FILLER_0_27_92
*1139 FILLER_0_27_96
*1140 FILLER_0_28_127
*1141 FILLER_0_28_133
*1142 FILLER_0_28_139
*1143 FILLER_0_28_148
*1144 FILLER_0_28_15
*1145 FILLER_0_28_161
*1146 FILLER_0_28_169
*1147 FILLER_0_28_177
*1148 FILLER_0_28_182
*1149 FILLER_0_28_187
*1150 FILLER_0_28_194
*1151 FILLER_0_28_197
*1152 FILLER_0_28_209
*1153 FILLER_0_28_217
*1154 FILLER_0_28_225
*1155 FILLER_0_28_233
*1156 FILLER_0_28_239
*1157 FILLER_0_28_251
*1158 FILLER_0_28_253
*1159 FILLER_0_28_27
*1160 FILLER_0_28_284
*1161 FILLER_0_28_296
*1162 FILLER_0_28_3
*1163 FILLER_0_28_306
*1164 FILLER_0_28_336
*1165 FILLER_0_28_348
*1166 FILLER_0_28_36
*1167 FILLER_0_28_48
*1168 FILLER_0_28_54
*1169 FILLER_0_28_78
*1170 FILLER_0_28_85
*1171 FILLER_0_28_97
*1172 FILLER_0_29_120
*1173 FILLER_0_29_167
*1174 FILLER_0_29_205
*1175 FILLER_0_29_211
*1176 FILLER_0_29_215
*1177 FILLER_0_29_223
*1178 FILLER_0_29_225
*1179 FILLER_0_29_237
*1180 FILLER_0_29_245
*1181 FILLER_0_29_249
*1182 FILLER_0_29_258
*1183 FILLER_0_29_278
*1184 FILLER_0_29_292
*1185 FILLER_0_29_3
*1186 FILLER_0_29_300
*1187 FILLER_0_29_337
*1188 FILLER_0_29_349
*1189 FILLER_0_29_44
*1190 FILLER_0_29_85
*1191 FILLER_0_29_89
*1192 FILLER_0_29_9
*1193 FILLER_0_2_109
*1194 FILLER_0_2_121
*1195 FILLER_0_2_133
*1196 FILLER_0_2_139
*1197 FILLER_0_2_141
*1198 FILLER_0_2_15
*1199 FILLER_0_2_153
*1200 FILLER_0_2_165
*1201 FILLER_0_2_177
*1202 FILLER_0_2_189
*1203 FILLER_0_2_195
*1204 FILLER_0_2_197
*1205 FILLER_0_2_209
*1206 FILLER_0_2_221
*1207 FILLER_0_2_233
*1208 FILLER_0_2_245
*1209 FILLER_0_2_251
*1210 FILLER_0_2_253
*1211 FILLER_0_2_265
*1212 FILLER_0_2_27
*1213 FILLER_0_2_277
*1214 FILLER_0_2_289
*1215 FILLER_0_2_29
*1216 FILLER_0_2_3
*1217 FILLER_0_2_301
*1218 FILLER_0_2_307
*1219 FILLER_0_2_309
*1220 FILLER_0_2_321
*1221 FILLER_0_2_333
*1222 FILLER_0_2_345
*1223 FILLER_0_2_41
*1224 FILLER_0_2_53
*1225 FILLER_0_2_65
*1226 FILLER_0_2_77
*1227 FILLER_0_2_83
*1228 FILLER_0_2_85
*1229 FILLER_0_2_97
*1230 FILLER_0_30_122
*1231 FILLER_0_30_134
*1232 FILLER_0_30_141
*1233 FILLER_0_30_165
*1234 FILLER_0_30_177
*1235 FILLER_0_30_189
*1236 FILLER_0_30_195
*1237 FILLER_0_30_205
*1238 FILLER_0_30_211
*1239 FILLER_0_30_219
*1240 FILLER_0_30_227
*1241 FILLER_0_30_242
*1242 FILLER_0_30_250
*1243 FILLER_0_30_259
*1244 FILLER_0_30_263
*1245 FILLER_0_30_27
*1246 FILLER_0_30_291
*1247 FILLER_0_30_3
*1248 FILLER_0_30_303
*1249 FILLER_0_30_307
*1250 FILLER_0_30_309
*1251 FILLER_0_30_316
*1252 FILLER_0_30_348
*1253 FILLER_0_30_36
*1254 FILLER_0_30_48
*1255 FILLER_0_30_60
*1256 FILLER_0_30_83
*1257 FILLER_0_30_85
*1258 FILLER_0_30_97
*1259 FILLER_0_31_105
*1260 FILLER_0_31_11
*1261 FILLER_0_31_119
*1262 FILLER_0_31_131
*1263 FILLER_0_31_143
*1264 FILLER_0_31_149
*1265 FILLER_0_31_157
*1266 FILLER_0_31_165
*1267 FILLER_0_31_169
*1268 FILLER_0_31_181
*1269 FILLER_0_31_207
*1270 FILLER_0_31_219
*1271 FILLER_0_31_223
*1272 FILLER_0_31_248
*1273 FILLER_0_31_260
*1274 FILLER_0_31_274
*1275 FILLER_0_31_295
*1276 FILLER_0_31_3
*1277 FILLER_0_31_307
*1278 FILLER_0_31_314
*1279 FILLER_0_31_322
*1280 FILLER_0_31_333
*1281 FILLER_0_31_343
*1282 FILLER_0_31_37
*1283 FILLER_0_31_49
*1284 FILLER_0_31_55
*1285 FILLER_0_31_57
*1286 FILLER_0_31_69
*1287 FILLER_0_31_81
*1288 FILLER_0_31_93
*1289 FILLER_0_32_11
*1290 FILLER_0_32_121
*1291 FILLER_0_32_133
*1292 FILLER_0_32_139
*1293 FILLER_0_32_141
*1294 FILLER_0_32_167
*1295 FILLER_0_32_179
*1296 FILLER_0_32_187
*1297 FILLER_0_32_194
*1298 FILLER_0_32_209
*1299 FILLER_0_32_244
*1300 FILLER_0_32_253
*1301 FILLER_0_32_265
*1302 FILLER_0_32_269
*1303 FILLER_0_32_293
*1304 FILLER_0_32_3
*1305 FILLER_0_32_336
*1306 FILLER_0_32_348
*1307 FILLER_0_32_36
*1308 FILLER_0_32_48
*1309 FILLER_0_32_60
*1310 FILLER_0_32_67
*1311 FILLER_0_32_79
*1312 FILLER_0_32_83
*1313 FILLER_0_32_85
*1314 FILLER_0_32_91
*1315 FILLER_0_32_97
*1316 FILLER_0_33_100
*1317 FILLER_0_33_109
*1318 FILLER_0_33_123
*1319 FILLER_0_33_128
*1320 FILLER_0_33_134
*1321 FILLER_0_33_140
*1322 FILLER_0_33_164
*1323 FILLER_0_33_169
*1324 FILLER_0_33_181
*1325 FILLER_0_33_206
*1326 FILLER_0_33_218
*1327 FILLER_0_33_230
*1328 FILLER_0_33_243
*1329 FILLER_0_33_255
*1330 FILLER_0_33_291
*1331 FILLER_0_33_3
*1332 FILLER_0_33_303
*1333 FILLER_0_33_337
*1334 FILLER_0_33_349
*1335 FILLER_0_33_41
*1336 FILLER_0_33_53
*1337 FILLER_0_33_7
*1338 FILLER_0_33_77
*1339 FILLER_0_33_85
*1340 FILLER_0_33_90
*1341 FILLER_0_33_94
*1342 FILLER_0_34_116
*1343 FILLER_0_34_124
*1344 FILLER_0_34_136
*1345 FILLER_0_34_141
*1346 FILLER_0_34_15
*1347 FILLER_0_34_165
*1348 FILLER_0_34_177
*1349 FILLER_0_34_181
*1350 FILLER_0_34_194
*1351 FILLER_0_34_201
*1352 FILLER_0_34_213
*1353 FILLER_0_34_225
*1354 FILLER_0_34_23
*1355 FILLER_0_34_232
*1356 FILLER_0_34_244
*1357 FILLER_0_34_253
*1358 FILLER_0_34_261
*1359 FILLER_0_34_27
*1360 FILLER_0_34_279
*1361 FILLER_0_34_286
*1362 FILLER_0_34_29
*1363 FILLER_0_34_298
*1364 FILLER_0_34_3
*1365 FILLER_0_34_306
*1366 FILLER_0_34_309
*1367 FILLER_0_34_315
*1368 FILLER_0_34_320
*1369 FILLER_0_34_324
*1370 FILLER_0_34_337
*1371 FILLER_0_34_349
*1372 FILLER_0_34_41
*1373 FILLER_0_34_49
*1374 FILLER_0_34_82
*1375 FILLER_0_34_85
*1376 FILLER_0_35_111
*1377 FILLER_0_35_125
*1378 FILLER_0_35_15
*1379 FILLER_0_35_160
*1380 FILLER_0_35_174
*1381 FILLER_0_35_186
*1382 FILLER_0_35_194
*1383 FILLER_0_35_198
*1384 FILLER_0_35_214
*1385 FILLER_0_35_225
*1386 FILLER_0_35_246
*1387 FILLER_0_35_258
*1388 FILLER_0_35_27
*1389 FILLER_0_35_278
*1390 FILLER_0_35_3
*1391 FILLER_0_35_301
*1392 FILLER_0_35_305
*1393 FILLER_0_35_314
*1394 FILLER_0_35_335
*1395 FILLER_0_35_337
*1396 FILLER_0_35_349
*1397 FILLER_0_35_39
*1398 FILLER_0_35_51
*1399 FILLER_0_35_55
*1400 FILLER_0_35_57
*1401 FILLER_0_35_74
*1402 FILLER_0_35_81
*1403 FILLER_0_35_88
*1404 FILLER_0_35_94
*1405 FILLER_0_35_99
*1406 FILLER_0_36_103
*1407 FILLER_0_36_129
*1408 FILLER_0_36_137
*1409 FILLER_0_36_141
*1410 FILLER_0_36_15
*1411 FILLER_0_36_153
*1412 FILLER_0_36_165
*1413 FILLER_0_36_169
*1414 FILLER_0_36_185
*1415 FILLER_0_36_194
*1416 FILLER_0_36_251
*1417 FILLER_0_36_262
*1418 FILLER_0_36_27
*1419 FILLER_0_36_29
*1420 FILLER_0_36_292
*1421 FILLER_0_36_3
*1422 FILLER_0_36_304
*1423 FILLER_0_36_309
*1424 FILLER_0_36_313
*1425 FILLER_0_36_347
*1426 FILLER_0_36_41
*1427 FILLER_0_36_53
*1428 FILLER_0_36_65
*1429 FILLER_0_36_77
*1430 FILLER_0_36_83
*1431 FILLER_0_36_85
*1432 FILLER_0_36_97
*1433 FILLER_0_37_133
*1434 FILLER_0_37_15
*1435 FILLER_0_37_189
*1436 FILLER_0_37_213
*1437 FILLER_0_37_221
*1438 FILLER_0_37_240
*1439 FILLER_0_37_252
*1440 FILLER_0_37_256
*1441 FILLER_0_37_27
*1442 FILLER_0_37_291
*1443 FILLER_0_37_3
*1444 FILLER_0_37_303
*1445 FILLER_0_37_309
*1446 FILLER_0_37_334
*1447 FILLER_0_37_337
*1448 FILLER_0_37_349
*1449 FILLER_0_37_39
*1450 FILLER_0_37_51
*1451 FILLER_0_37_55
*1452 FILLER_0_37_57
*1453 FILLER_0_37_69
*1454 FILLER_0_37_98
*1455 FILLER_0_38_102
*1456 FILLER_0_38_106
*1457 FILLER_0_38_110
*1458 FILLER_0_38_113
*1459 FILLER_0_38_120
*1460 FILLER_0_38_126
*1461 FILLER_0_38_130
*1462 FILLER_0_38_134
*1463 FILLER_0_38_14
*1464 FILLER_0_38_141
*1465 FILLER_0_38_151
*1466 FILLER_0_38_163
*1467 FILLER_0_38_167
*1468 FILLER_0_38_169
*1469 FILLER_0_38_173
*1470 FILLER_0_38_18
*1471 FILLER_0_38_180
*1472 FILLER_0_38_192
*1473 FILLER_0_38_197
*1474 FILLER_0_38_209
*1475 FILLER_0_38_22
*1476 FILLER_0_38_221
*1477 FILLER_0_38_225
*1478 FILLER_0_38_231
*1479 FILLER_0_38_243
*1480 FILLER_0_38_251
*1481 FILLER_0_38_253
*1482 FILLER_0_38_261
*1483 FILLER_0_38_271
*1484 FILLER_0_38_279
*1485 FILLER_0_38_281
*1486 FILLER_0_38_294
*1487 FILLER_0_38_298
*1488 FILLER_0_38_3
*1489 FILLER_0_38_302
*1490 FILLER_0_38_312
*1491 FILLER_0_38_32
*1492 FILLER_0_38_328
*1493 FILLER_0_38_337
*1494 FILLER_0_38_349
*1495 FILLER_0_38_38
*1496 FILLER_0_38_42
*1497 FILLER_0_38_46
*1498 FILLER_0_38_50
*1499 FILLER_0_38_54
*1500 FILLER_0_38_57
*1501 FILLER_0_38_62
*1502 FILLER_0_38_66
*1503 FILLER_0_38_70
*1504 FILLER_0_38_74
*1505 FILLER_0_38_78
*1506 FILLER_0_38_88
*1507 FILLER_0_38_94
*1508 FILLER_0_38_98
*1509 FILLER_0_3_105
*1510 FILLER_0_3_111
*1511 FILLER_0_3_113
*1512 FILLER_0_3_125
*1513 FILLER_0_3_137
*1514 FILLER_0_3_149
*1515 FILLER_0_3_15
*1516 FILLER_0_3_161
*1517 FILLER_0_3_167
*1518 FILLER_0_3_169
*1519 FILLER_0_3_181
*1520 FILLER_0_3_193
*1521 FILLER_0_3_205
*1522 FILLER_0_3_217
*1523 FILLER_0_3_223
*1524 FILLER_0_3_225
*1525 FILLER_0_3_237
*1526 FILLER_0_3_249
*1527 FILLER_0_3_261
*1528 FILLER_0_3_27
*1529 FILLER_0_3_273
*1530 FILLER_0_3_279
*1531 FILLER_0_3_281
*1532 FILLER_0_3_293
*1533 FILLER_0_3_3
*1534 FILLER_0_3_305
*1535 FILLER_0_3_317
*1536 FILLER_0_3_329
*1537 FILLER_0_3_335
*1538 FILLER_0_3_337
*1539 FILLER_0_3_349
*1540 FILLER_0_3_39
*1541 FILLER_0_3_51
*1542 FILLER_0_3_55
*1543 FILLER_0_3_57
*1544 FILLER_0_3_69
*1545 FILLER_0_3_81
*1546 FILLER_0_3_93
*1547 FILLER_0_4_109
*1548 FILLER_0_4_121
*1549 FILLER_0_4_133
*1550 FILLER_0_4_139
*1551 FILLER_0_4_141
*1552 FILLER_0_4_15
*1553 FILLER_0_4_153
*1554 FILLER_0_4_165
*1555 FILLER_0_4_177
*1556 FILLER_0_4_189
*1557 FILLER_0_4_195
*1558 FILLER_0_4_197
*1559 FILLER_0_4_209
*1560 FILLER_0_4_221
*1561 FILLER_0_4_233
*1562 FILLER_0_4_245
*1563 FILLER_0_4_251
*1564 FILLER_0_4_253
*1565 FILLER_0_4_265
*1566 FILLER_0_4_27
*1567 FILLER_0_4_277
*1568 FILLER_0_4_289
*1569 FILLER_0_4_29
*1570 FILLER_0_4_3
*1571 FILLER_0_4_301
*1572 FILLER_0_4_307
*1573 FILLER_0_4_309
*1574 FILLER_0_4_321
*1575 FILLER_0_4_333
*1576 FILLER_0_4_345
*1577 FILLER_0_4_41
*1578 FILLER_0_4_53
*1579 FILLER_0_4_65
*1580 FILLER_0_4_77
*1581 FILLER_0_4_83
*1582 FILLER_0_4_85
*1583 FILLER_0_4_97
*1584 FILLER_0_5_105
*1585 FILLER_0_5_111
*1586 FILLER_0_5_113
*1587 FILLER_0_5_125
*1588 FILLER_0_5_137
*1589 FILLER_0_5_149
*1590 FILLER_0_5_15
*1591 FILLER_0_5_161
*1592 FILLER_0_5_167
*1593 FILLER_0_5_169
*1594 FILLER_0_5_181
*1595 FILLER_0_5_193
*1596 FILLER_0_5_205
*1597 FILLER_0_5_217
*1598 FILLER_0_5_223
*1599 FILLER_0_5_225
*1600 FILLER_0_5_237
*1601 FILLER_0_5_249
*1602 FILLER_0_5_261
*1603 FILLER_0_5_27
*1604 FILLER_0_5_273
*1605 FILLER_0_5_279
*1606 FILLER_0_5_281
*1607 FILLER_0_5_293
*1608 FILLER_0_5_3
*1609 FILLER_0_5_305