*SPEF "ieee 1481-1999"
*DESIGN "tt_um_dlmiles_muldiv4"
*DATE "11:11:11 Fri 11 11, 1111"
*VENDOR "OpenRCX"
*PROGRAM "Parallel Extraction"
*VERSION "1.0"
*DESIGN_FLOW "NAME_SCOPE LOCAL" "PIN_CAP NONE"
*DIVIDER /
*DELIMITER :
*BUS_DELIMITER []
*T_UNIT 1 NS
*C_UNIT 1 PF
*R_UNIT 1 OHM
*L_UNIT 1 HENRY

*NAME_MAP
*3 clk
*4 ena
*5 rst_n
*6 ui_in[0]
*7 ui_in[1]
*8 ui_in[2]
*9 ui_in[3]
*10 ui_in[4]
*11 ui_in[5]
*12 ui_in[6]
*13 ui_in[7]
*14 uio_in[0]
*15 uio_in[1]
*16 uio_in[2]
*17 uio_in[3]
*18 uio_in[4]
*19 uio_in[5]
*20 uio_in[6]
*21 uio_in[7]
*22 net11
*23 net12
*24 net13
*25 net14
*26 net24
*27 net25
*28 net15
*29 net16
*30 net17
*31 net18
*32 net19
*33 net20
*34 net23
*35 uio_out[5]
*36 net21
*37 net22
*38 uo_out[0]
*39 uo_out[1]
*40 uo_out[2]
*41 uo_out[3]
*42 uo_out[4]
*43 uo_out[5]
*44 uo_out[6]
*45 uo_out[7]
*46 _000_
*47 _001_
*48 _002_
*49 _003_
*50 _004_
*51 _005_
*52 _006_
*53 _007_
*54 _008_
*55 _009_
*56 _010_
*57 _011_
*58 _012_
*59 _013_
*60 _014_
*61 _015_
*62 _016_
*63 _017_
*64 _018_
*65 _019_
*66 _020_
*67 _021_
*68 _022_
*69 _023_
*70 _024_
*71 _025_
*72 _026_
*73 _027_
*74 _028_
*75 _029_
*76 _030_
*77 _031_
*78 _032_
*79 _033_
*80 _034_
*81 _035_
*82 _036_
*83 _037_
*84 _038_
*85 _039_
*86 _040_
*87 _041_
*88 _042_
*89 _043_
*90 _044_
*91 _045_
*92 _046_
*93 _047_
*94 _048_
*95 _049_
*96 _050_
*97 _051_
*98 _052_
*99 _053_
*100 _054_
*101 _055_
*102 _056_
*103 _057_
*104 _058_
*105 _059_
*106 _060_
*107 _061_
*108 _062_
*109 _063_
*110 _064_
*111 _065_
*112 _066_
*113 _067_
*114 _068_
*115 _069_
*116 _070_
*117 _071_
*118 _072_
*119 _073_
*120 _074_
*121 _075_
*122 _076_
*123 _077_
*124 _078_
*125 _079_
*126 _080_
*127 _081_
*128 _082_
*129 _083_
*130 _084_
*131 _085_
*132 _086_
*133 _087_
*134 _088_
*135 _089_
*136 _090_
*137 _091_
*138 _092_
*139 _093_
*140 _094_
*141 _095_
*142 _096_
*143 _097_
*144 _098_
*145 _099_
*146 _100_
*147 _101_
*148 _102_
*149 _103_
*150 _104_
*151 _105_
*152 _106_
*153 _107_
*154 _108_
*155 _109_
*156 _110_
*157 _111_
*158 _112_
*159 _113_
*160 _114_
*161 _115_
*162 _116_
*163 _117_
*164 _118_
*165 _119_
*166 _120_
*167 _121_
*168 _122_
*169 _123_
*170 _124_
*171 _125_
*172 _126_
*173 _127_
*174 _128_
*175 _129_
*176 _130_
*177 _131_
*178 _132_
*179 _133_
*180 _134_
*181 _135_
*182 _136_
*183 _137_
*184 _138_
*185 _139_
*186 _140_
*187 _141_
*188 _142_
*189 _143_
*190 _144_
*191 _145_
*192 _146_
*193 _147_
*194 _148_
*195 _149_
*196 _150_
*197 _151_
*198 _152_
*199 _153_
*200 _154_
*201 _155_
*202 _156_
*203 _157_
*204 _158_
*205 _159_
*206 _160_
*207 _161_
*208 _162_
*209 _163_
*210 _164_
*211 _165_
*212 _166_
*213 _167_
*214 _168_
*215 _169_
*216 _170_
*217 _171_
*218 _172_
*219 net1
*220 net10
*221 net2
*222 net3
*223 net4
*224 net5
*225 net6
*226 net7
*227 net8
*228 net9
*229 FILLER_0_0_109
*230 FILLER_0_0_113
*231 FILLER_0_0_125
*232 FILLER_0_0_137
*233 FILLER_0_0_141
*234 FILLER_0_0_15
*235 FILLER_0_0_153
*236 FILLER_0_0_165
*237 FILLER_0_0_169
*238 FILLER_0_0_181
*239 FILLER_0_0_193
*240 FILLER_0_0_197
*241 FILLER_0_0_209
*242 FILLER_0_0_221
*243 FILLER_0_0_225
*244 FILLER_0_0_237
*245 FILLER_0_0_249
*246 FILLER_0_0_253
*247 FILLER_0_0_265
*248 FILLER_0_0_27
*249 FILLER_0_0_277
*250 FILLER_0_0_281
*251 FILLER_0_0_29
*252 FILLER_0_0_293
*253 FILLER_0_0_3
*254 FILLER_0_0_305
*255 FILLER_0_0_309
*256 FILLER_0_0_321
*257 FILLER_0_0_333
*258 FILLER_0_0_337
*259 FILLER_0_0_349
*260 FILLER_0_0_41
*261 FILLER_0_0_53
*262 FILLER_0_0_57
*263 FILLER_0_0_69
*264 FILLER_0_0_81
*265 FILLER_0_0_85
*266 FILLER_0_0_97
*267 FILLER_0_10_109
*268 FILLER_0_10_121
*269 FILLER_0_10_133
*270 FILLER_0_10_139
*271 FILLER_0_10_141
*272 FILLER_0_10_15
*273 FILLER_0_10_153
*274 FILLER_0_10_165
*275 FILLER_0_10_177
*276 FILLER_0_10_189
*277 FILLER_0_10_195
*278 FILLER_0_10_197
*279 FILLER_0_10_209
*280 FILLER_0_10_221
*281 FILLER_0_10_233
*282 FILLER_0_10_245
*283 FILLER_0_10_251
*284 FILLER_0_10_253
*285 FILLER_0_10_265
*286 FILLER_0_10_27
*287 FILLER_0_10_277
*288 FILLER_0_10_289
*289 FILLER_0_10_29
*290 FILLER_0_10_3
*291 FILLER_0_10_301
*292 FILLER_0_10_307
*293 FILLER_0_10_309
*294 FILLER_0_10_321
*295 FILLER_0_10_333
*296 FILLER_0_10_345
*297 FILLER_0_10_41
*298 FILLER_0_10_53
*299 FILLER_0_10_65
*300 FILLER_0_10_77
*301 FILLER_0_10_83
*302 FILLER_0_10_85
*303 FILLER_0_10_97
*304 FILLER_0_11_105
*305 FILLER_0_11_111
*306 FILLER_0_11_113
*307 FILLER_0_11_125
*308 FILLER_0_11_137
*309 FILLER_0_11_149
*310 FILLER_0_11_15
*311 FILLER_0_11_161
*312 FILLER_0_11_167
*313 FILLER_0_11_169
*314 FILLER_0_11_181
*315 FILLER_0_11_193
*316 FILLER_0_11_205
*317 FILLER_0_11_217
*318 FILLER_0_11_223
*319 FILLER_0_11_225
*320 FILLER_0_11_237
*321 FILLER_0_11_249
*322 FILLER_0_11_261
*323 FILLER_0_11_27
*324 FILLER_0_11_273
*325 FILLER_0_11_279
*326 FILLER_0_11_281
*327 FILLER_0_11_293
*328 FILLER_0_11_3
*329 FILLER_0_11_305
*330 FILLER_0_11_317
*331 FILLER_0_11_329
*332 FILLER_0_11_335
*333 FILLER_0_11_337
*334 FILLER_0_11_349
*335 FILLER_0_11_39
*336 FILLER_0_11_51
*337 FILLER_0_11_55
*338 FILLER_0_11_57
*339 FILLER_0_11_69
*340 FILLER_0_11_81
*341 FILLER_0_11_93
*342 FILLER_0_12_109
*343 FILLER_0_12_121
*344 FILLER_0_12_133
*345 FILLER_0_12_139
*346 FILLER_0_12_141
*347 FILLER_0_12_15
*348 FILLER_0_12_153
*349 FILLER_0_12_165
*350 FILLER_0_12_177
*351 FILLER_0_12_189
*352 FILLER_0_12_195
*353 FILLER_0_12_197
*354 FILLER_0_12_209
*355 FILLER_0_12_221
*356 FILLER_0_12_233
*357 FILLER_0_12_245
*358 FILLER_0_12_251
*359 FILLER_0_12_253
*360 FILLER_0_12_265
*361 FILLER_0_12_27
*362 FILLER_0_12_277
*363 FILLER_0_12_289
*364 FILLER_0_12_29
*365 FILLER_0_12_3
*366 FILLER_0_12_301
*367 FILLER_0_12_307
*368 FILLER_0_12_309
*369 FILLER_0_12_321
*370 FILLER_0_12_333
*371 FILLER_0_12_345
*372 FILLER_0_12_41
*373 FILLER_0_12_53
*374 FILLER_0_12_65
*375 FILLER_0_12_77
*376 FILLER_0_12_83
*377 FILLER_0_12_85
*378 FILLER_0_12_97
*379 FILLER_0_13_105
*380 FILLER_0_13_111
*381 FILLER_0_13_113
*382 FILLER_0_13_125
*383 FILLER_0_13_137
*384 FILLER_0_13_149
*385 FILLER_0_13_15
*386 FILLER_0_13_161
*387 FILLER_0_13_167
*388 FILLER_0_13_169
*389 FILLER_0_13_181
*390 FILLER_0_13_193
*391 FILLER_0_13_205
*392 FILLER_0_13_217
*393 FILLER_0_13_223
*394 FILLER_0_13_225
*395 FILLER_0_13_237
*396 FILLER_0_13_249
*397 FILLER_0_13_261
*398 FILLER_0_13_27
*399 FILLER_0_13_273
*400 FILLER_0_13_279
*401 FILLER_0_13_281
*402 FILLER_0_13_293
*403 FILLER_0_13_3
*404 FILLER_0_13_305
*405 FILLER_0_13_317
*406 FILLER_0_13_329
*407 FILLER_0_13_335
*408 FILLER_0_13_337
*409 FILLER_0_13_349
*410 FILLER_0_13_39
*411 FILLER_0_13_51
*412 FILLER_0_13_55
*413 FILLER_0_13_57
*414 FILLER_0_13_69
*415 FILLER_0_13_81
*416 FILLER_0_13_93
*417 FILLER_0_14_109
*418 FILLER_0_14_121
*419 FILLER_0_14_133
*420 FILLER_0_14_139
*421 FILLER_0_14_141
*422 FILLER_0_14_15
*423 FILLER_0_14_153
*424 FILLER_0_14_165
*425 FILLER_0_14_177
*426 FILLER_0_14_189
*427 FILLER_0_14_195
*428 FILLER_0_14_197
*429 FILLER_0_14_209
*430 FILLER_0_14_221
*431 FILLER_0_14_233
*432 FILLER_0_14_245
*433 FILLER_0_14_251
*434 FILLER_0_14_253
*435 FILLER_0_14_265
*436 FILLER_0_14_27
*437 FILLER_0_14_277
*438 FILLER_0_14_289
*439 FILLER_0_14_29
*440 FILLER_0_14_3
*441 FILLER_0_14_301
*442 FILLER_0_14_307
*443 FILLER_0_14_309
*444 FILLER_0_14_321
*445 FILLER_0_14_333
*446 FILLER_0_14_345
*447 FILLER_0_14_41
*448 FILLER_0_14_53
*449 FILLER_0_14_65
*450 FILLER_0_14_77
*451 FILLER_0_14_83
*452 FILLER_0_14_85
*453 FILLER_0_14_97
*454 FILLER_0_15_105
*455 FILLER_0_15_111
*456 FILLER_0_15_113
*457 FILLER_0_15_125
*458 FILLER_0_15_137
*459 FILLER_0_15_149
*460 FILLER_0_15_15
*461 FILLER_0_15_161
*462 FILLER_0_15_167
*463 FILLER_0_15_169
*464 FILLER_0_15_181
*465 FILLER_0_15_193
*466 FILLER_0_15_205
*467 FILLER_0_15_217
*468 FILLER_0_15_223
*469 FILLER_0_15_225
*470 FILLER_0_15_237
*471 FILLER_0_15_249
*472 FILLER_0_15_261
*473 FILLER_0_15_27
*474 FILLER_0_15_273
*475 FILLER_0_15_279
*476 FILLER_0_15_281
*477 FILLER_0_15_293
*478 FILLER_0_15_3
*479 FILLER_0_15_305
*480 FILLER_0_15_317
*481 FILLER_0_15_329
*482 FILLER_0_15_335
*483 FILLER_0_15_337
*484 FILLER_0_15_349
*485 FILLER_0_15_39
*486 FILLER_0_15_51
*487 FILLER_0_15_55
*488 FILLER_0_15_57
*489 FILLER_0_15_69
*490 FILLER_0_15_81
*491 FILLER_0_15_93
*492 FILLER_0_16_109
*493 FILLER_0_16_121
*494 FILLER_0_16_133
*495 FILLER_0_16_139
*496 FILLER_0_16_141
*497 FILLER_0_16_15
*498 FILLER_0_16_153
*499 FILLER_0_16_165
*500 FILLER_0_16_177
*501 FILLER_0_16_189
*502 FILLER_0_16_195
*503 FILLER_0_16_197
*504 FILLER_0_16_209
*505 FILLER_0_16_221
*506 FILLER_0_16_233
*507 FILLER_0_16_245
*508 FILLER_0_16_251
*509 FILLER_0_16_253
*510 FILLER_0_16_265
*511 FILLER_0_16_27
*512 FILLER_0_16_277
*513 FILLER_0_16_289
*514 FILLER_0_16_29
*515 FILLER_0_16_3
*516 FILLER_0_16_301
*517 FILLER_0_16_307
*518 FILLER_0_16_309
*519 FILLER_0_16_321
*520 FILLER_0_16_333
*521 FILLER_0_16_345
*522 FILLER_0_16_41
*523 FILLER_0_16_53
*524 FILLER_0_16_65
*525 FILLER_0_16_77
*526 FILLER_0_16_83
*527 FILLER_0_16_85
*528 FILLER_0_16_97
*529 FILLER_0_17_105
*530 FILLER_0_17_111
*531 FILLER_0_17_113
*532 FILLER_0_17_125
*533 FILLER_0_17_137
*534 FILLER_0_17_149
*535 FILLER_0_17_15
*536 FILLER_0_17_161
*537 FILLER_0_17_167
*538 FILLER_0_17_169
*539 FILLER_0_17_181
*540 FILLER_0_17_193
*541 FILLER_0_17_205
*542 FILLER_0_17_217
*543 FILLER_0_17_223
*544 FILLER_0_17_225
*545 FILLER_0_17_237
*546 FILLER_0_17_249
*547 FILLER_0_17_261
*548 FILLER_0_17_27
*549 FILLER_0_17_273
*550 FILLER_0_17_279
*551 FILLER_0_17_281
*552 FILLER_0_17_293
*553 FILLER_0_17_3
*554 FILLER_0_17_305
*555 FILLER_0_17_317
*556 FILLER_0_17_329
*557 FILLER_0_17_335
*558 FILLER_0_17_337
*559 FILLER_0_17_349
*560 FILLER_0_17_39
*561 FILLER_0_17_51
*562 FILLER_0_17_55
*563 FILLER_0_17_57
*564 FILLER_0_17_69
*565 FILLER_0_17_81
*566 FILLER_0_17_93
*567 FILLER_0_18_109
*568 FILLER_0_18_121
*569 FILLER_0_18_133
*570 FILLER_0_18_139
*571 FILLER_0_18_141
*572 FILLER_0_18_15
*573 FILLER_0_18_153
*574 FILLER_0_18_165
*575 FILLER_0_18_177
*576 FILLER_0_18_189
*577 FILLER_0_18_195
*578 FILLER_0_18_197
*579 FILLER_0_18_209
*580 FILLER_0_18_221
*581 FILLER_0_18_233
*582 FILLER_0_18_245
*583 FILLER_0_18_251
*584 FILLER_0_18_253
*585 FILLER_0_18_265
*586 FILLER_0_18_27
*587 FILLER_0_18_277
*588 FILLER_0_18_289
*589 FILLER_0_18_29
*590 FILLER_0_18_3
*591 FILLER_0_18_301
*592 FILLER_0_18_307
*593 FILLER_0_18_309
*594 FILLER_0_18_321
*595 FILLER_0_18_333
*596 FILLER_0_18_345
*597 FILLER_0_18_41
*598 FILLER_0_18_53
*599 FILLER_0_18_65
*600 FILLER_0_18_77
*601 FILLER_0_18_83
*602 FILLER_0_18_85
*603 FILLER_0_18_97
*604 FILLER_0_19_105
*605 FILLER_0_19_111
*606 FILLER_0_19_113
*607 FILLER_0_19_125
*608 FILLER_0_19_137
*609 FILLER_0_19_149
*610 FILLER_0_19_15
*611 FILLER_0_19_161
*612 FILLER_0_19_167
*613 FILLER_0_19_169
*614 FILLER_0_19_181
*615 FILLER_0_19_193
*616 FILLER_0_19_205
*617 FILLER_0_19_217
*618 FILLER_0_19_223
*619 FILLER_0_19_225
*620 FILLER_0_19_237
*621 FILLER_0_19_249
*622 FILLER_0_19_261
*623 FILLER_0_19_27
*624 FILLER_0_19_273
*625 FILLER_0_19_279
*626 FILLER_0_19_281
*627 FILLER_0_19_293
*628 FILLER_0_19_3
*629 FILLER_0_19_305
*630 FILLER_0_19_317
*631 FILLER_0_19_329
*632 FILLER_0_19_335
*633 FILLER_0_19_337
*634 FILLER_0_19_349
*635 FILLER_0_19_39
*636 FILLER_0_19_51
*637 FILLER_0_19_55
*638 FILLER_0_19_57
*639 FILLER_0_19_69
*640 FILLER_0_19_81
*641 FILLER_0_19_93
*642 FILLER_0_1_105
*643 FILLER_0_1_111
*644 FILLER_0_1_113
*645 FILLER_0_1_125
*646 FILLER_0_1_137
*647 FILLER_0_1_149
*648 FILLER_0_1_15
*649 FILLER_0_1_161
*650 FILLER_0_1_167
*651 FILLER_0_1_169
*652 FILLER_0_1_181
*653 FILLER_0_1_193
*654 FILLER_0_1_205
*655 FILLER_0_1_217
*656 FILLER_0_1_223
*657 FILLER_0_1_225
*658 FILLER_0_1_237
*659 FILLER_0_1_249
*660 FILLER_0_1_261
*661 FILLER_0_1_27
*662 FILLER_0_1_273
*663 FILLER_0_1_279
*664 FILLER_0_1_281
*665 FILLER_0_1_293
*666 FILLER_0_1_3
*667 FILLER_0_1_305
*668 FILLER_0_1_317
*669 FILLER_0_1_329
*670 FILLER_0_1_335
*671 FILLER_0_1_337
*672 FILLER_0_1_349
*673 FILLER_0_1_39
*674 FILLER_0_1_51
*675 FILLER_0_1_55
*676 FILLER_0_1_57
*677 FILLER_0_1_69
*678 FILLER_0_1_81
*679 FILLER_0_1_93
*680 FILLER_0_20_109
*681 FILLER_0_20_121
*682 FILLER_0_20_133
*683 FILLER_0_20_139
*684 FILLER_0_20_141
*685 FILLER_0_20_15
*686 FILLER_0_20_153
*687 FILLER_0_20_165
*688 FILLER_0_20_177
*689 FILLER_0_20_189
*690 FILLER_0_20_195
*691 FILLER_0_20_197
*692 FILLER_0_20_209
*693 FILLER_0_20_221
*694 FILLER_0_20_233
*695 FILLER_0_20_245
*696 FILLER_0_20_251
*697 FILLER_0_20_253
*698 FILLER_0_20_265
*699 FILLER_0_20_27
*700 FILLER_0_20_277
*701 FILLER_0_20_289
*702 FILLER_0_20_29
*703 FILLER_0_20_3
*704 FILLER_0_20_301
*705 FILLER_0_20_307
*706 FILLER_0_20_309
*707 FILLER_0_20_321
*708 FILLER_0_20_333
*709 FILLER_0_20_345
*710 FILLER_0_20_41
*711 FILLER_0_20_53
*712 FILLER_0_20_65
*713 FILLER_0_20_77
*714 FILLER_0_20_83
*715 FILLER_0_20_85
*716 FILLER_0_20_97
*717 FILLER_0_21_105
*718 FILLER_0_21_111
*719 FILLER_0_21_113
*720 FILLER_0_21_125
*721 FILLER_0_21_137
*722 FILLER_0_21_149
*723 FILLER_0_21_15
*724 FILLER_0_21_161
*725 FILLER_0_21_167
*726 FILLER_0_21_169
*727 FILLER_0_21_181
*728 FILLER_0_21_193
*729 FILLER_0_21_205
*730 FILLER_0_21_217
*731 FILLER_0_21_223
*732 FILLER_0_21_225
*733 FILLER_0_21_237
*734 FILLER_0_21_249
*735 FILLER_0_21_261
*736 FILLER_0_21_27
*737 FILLER_0_21_273
*738 FILLER_0_21_279
*739 FILLER_0_21_281
*740 FILLER_0_21_293
*741 FILLER_0_21_3
*742 FILLER_0_21_305
*743 FILLER_0_21_317
*744 FILLER_0_21_329
*745 FILLER_0_21_335
*746 FILLER_0_21_337
*747 FILLER_0_21_349
*748 FILLER_0_21_39
*749 FILLER_0_21_51
*750 FILLER_0_21_55
*751 FILLER_0_21_57
*752 FILLER_0_21_69
*753 FILLER_0_21_81
*754 FILLER_0_21_93
*755 FILLER_0_22_109
*756 FILLER_0_22_121
*757 FILLER_0_22_133
*758 FILLER_0_22_139
*759 FILLER_0_22_141
*760 FILLER_0_22_15
*761 FILLER_0_22_153
*762 FILLER_0_22_165
*763 FILLER_0_22_177
*764 FILLER_0_22_189
*765 FILLER_0_22_195
*766 FILLER_0_22_197
*767 FILLER_0_22_209
*768 FILLER_0_22_221
*769 FILLER_0_22_233
*770 FILLER_0_22_245
*771 FILLER_0_22_251
*772 FILLER_0_22_253
*773 FILLER_0_22_265
*774 FILLER_0_22_27
*775 FILLER_0_22_277
*776 FILLER_0_22_289
*777 FILLER_0_22_29
*778 FILLER_0_22_3
*779 FILLER_0_22_301
*780 FILLER_0_22_307
*781 FILLER_0_22_309
*782 FILLER_0_22_321
*783 FILLER_0_22_333
*784 FILLER_0_22_345
*785 FILLER_0_22_41
*786 FILLER_0_22_53
*787 FILLER_0_22_65
*788 FILLER_0_22_77
*789 FILLER_0_22_83
*790 FILLER_0_22_85
*791 FILLER_0_22_97
*792 FILLER_0_23_105
*793 FILLER_0_23_111
*794 FILLER_0_23_113
*795 FILLER_0_23_125
*796 FILLER_0_23_137
*797 FILLER_0_23_149
*798 FILLER_0_23_15
*799 FILLER_0_23_161
*800 FILLER_0_23_167
*801 FILLER_0_23_169
*802 FILLER_0_23_181
*803 FILLER_0_23_193
*804 FILLER_0_23_205
*805 FILLER_0_23_217
*806 FILLER_0_23_223
*807 FILLER_0_23_225
*808 FILLER_0_23_237
*809 FILLER_0_23_249
*810 FILLER_0_23_261
*811 FILLER_0_23_27
*812 FILLER_0_23_273
*813 FILLER_0_23_279
*814 FILLER_0_23_281
*815 FILLER_0_23_293
*816 FILLER_0_23_3
*817 FILLER_0_23_305
*818 FILLER_0_23_317
*819 FILLER_0_23_329
*820 FILLER_0_23_335
*821 FILLER_0_23_337
*822 FILLER_0_23_349
*823 FILLER_0_23_39
*824 FILLER_0_23_51
*825 FILLER_0_23_55
*826 FILLER_0_23_57
*827 FILLER_0_23_69
*828 FILLER_0_23_81
*829 FILLER_0_23_93
*830 FILLER_0_24_109
*831 FILLER_0_24_121
*832 FILLER_0_24_133
*833 FILLER_0_24_139
*834 FILLER_0_24_141
*835 FILLER_0_24_15
*836 FILLER_0_24_153
*837 FILLER_0_24_165
*838 FILLER_0_24_177
*839 FILLER_0_24_189
*840 FILLER_0_24_195
*841 FILLER_0_24_197
*842 FILLER_0_24_209
*843 FILLER_0_24_221
*844 FILLER_0_24_233
*845 FILLER_0_24_245
*846 FILLER_0_24_251
*847 FILLER_0_24_253
*848 FILLER_0_24_265
*849 FILLER_0_24_27
*850 FILLER_0_24_277
*851 FILLER_0_24_289
*852 FILLER_0_24_29
*853 FILLER_0_24_3
*854 FILLER_0_24_301
*855 FILLER_0_24_307
*856 FILLER_0_24_309
*857 FILLER_0_24_321
*858 FILLER_0_24_333
*859 FILLER_0_24_345
*860 FILLER_0_24_41
*861 FILLER_0_24_53
*862 FILLER_0_24_65
*863 FILLER_0_24_77
*864 FILLER_0_24_83
*865 FILLER_0_24_85
*866 FILLER_0_24_97
*867 FILLER_0_25_105
*868 FILLER_0_25_111
*869 FILLER_0_25_113
*870 FILLER_0_25_125
*871 FILLER_0_25_137
*872 FILLER_0_25_149
*873 FILLER_0_25_15
*874 FILLER_0_25_161
*875 FILLER_0_25_167
*876 FILLER_0_25_169
*877 FILLER_0_25_181
*878 FILLER_0_25_193
*879 FILLER_0_25_205
*880 FILLER_0_25_217
*881 FILLER_0_25_223
*882 FILLER_0_25_225
*883 FILLER_0_25_237
*884 FILLER_0_25_249
*885 FILLER_0_25_261
*886 FILLER_0_25_27
*887 FILLER_0_25_273
*888 FILLER_0_25_279
*889 FILLER_0_25_281
*890 FILLER_0_25_293
*891 FILLER_0_25_3
*892 FILLER_0_25_305
*893 FILLER_0_25_317
*894 FILLER_0_25_329
*895 FILLER_0_25_335
*896 FILLER_0_25_337
*897 FILLER_0_25_349
*898 FILLER_0_25_39
*899 FILLER_0_25_51
*900 FILLER_0_25_55
*901 FILLER_0_25_57
*902 FILLER_0_25_69
*903 FILLER_0_25_81
*904 FILLER_0_25_93
*905 FILLER_0_26_109
*906 FILLER_0_26_121
*907 FILLER_0_26_133
*908 FILLER_0_26_139
*909 FILLER_0_26_141
*910 FILLER_0_26_15
*911 FILLER_0_26_153
*912 FILLER_0_26_165
*913 FILLER_0_26_177
*914 FILLER_0_26_189
*915 FILLER_0_26_195
*916 FILLER_0_26_197
*917 FILLER_0_26_209
*918 FILLER_0_26_221
*919 FILLER_0_26_233
*920 FILLER_0_26_245
*921 FILLER_0_26_251
*922 FILLER_0_26_253
*923 FILLER_0_26_265
*924 FILLER_0_26_27
*925 FILLER_0_26_277
*926 FILLER_0_26_289
*927 FILLER_0_26_29
*928 FILLER_0_26_3
*929 FILLER_0_26_301
*930 FILLER_0_26_307
*931 FILLER_0_26_309
*932 FILLER_0_26_321
*933 FILLER_0_26_333
*934 FILLER_0_26_345
*935 FILLER_0_26_41
*936 FILLER_0_26_53
*937 FILLER_0_26_65
*938 FILLER_0_26_77
*939 FILLER_0_26_83
*940 FILLER_0_26_85
*941 FILLER_0_26_97
*942 FILLER_0_27_105
*943 FILLER_0_27_111
*944 FILLER_0_27_113
*945 FILLER_0_27_125
*946 FILLER_0_27_137
*947 FILLER_0_27_149
*948 FILLER_0_27_15
*949 FILLER_0_27_161
*950 FILLER_0_27_167
*951 FILLER_0_27_169
*952 FILLER_0_27_181
*953 FILLER_0_27_193
*954 FILLER_0_27_205
*955 FILLER_0_27_217
*956 FILLER_0_27_223
*957 FILLER_0_27_225
*958 FILLER_0_27_250
*959 FILLER_0_27_261
*960 FILLER_0_27_269
*961 FILLER_0_27_27
*962 FILLER_0_27_277
*963 FILLER_0_27_281
*964 FILLER_0_27_293
*965 FILLER_0_27_299
*966 FILLER_0_27_3
*967 FILLER_0_27_311
*968 FILLER_0_27_323
*969 FILLER_0_27_335
*970 FILLER_0_27_337
*971 FILLER_0_27_349
*972 FILLER_0_27_39
*973 FILLER_0_27_51
*974 FILLER_0_27_55
*975 FILLER_0_27_57
*976 FILLER_0_27_69
*977 FILLER_0_27_81
*978 FILLER_0_27_93
*979 FILLER_0_28_109
*980 FILLER_0_28_121
*981 FILLER_0_28_133
*982 FILLER_0_28_139
*983 FILLER_0_28_141
*984 FILLER_0_28_15
*985 FILLER_0_28_153
*986 FILLER_0_28_165
*987 FILLER_0_28_177
*988 FILLER_0_28_185
*989 FILLER_0_28_194
*990 FILLER_0_28_197
*991 FILLER_0_28_205
*992 FILLER_0_28_223
*993 FILLER_0_28_232
*994 FILLER_0_28_244
*995 FILLER_0_28_253
*996 FILLER_0_28_265
*997 FILLER_0_28_27
*998 FILLER_0_28_286
*999 FILLER_0_28_29
*1000 FILLER_0_28_292
*1001 FILLER_0_28_3
*1002 FILLER_0_28_307
*1003 FILLER_0_28_309
*1004 FILLER_0_28_321
*1005 FILLER_0_28_333
*1006 FILLER_0_28_345
*1007 FILLER_0_28_41
*1008 FILLER_0_28_53
*1009 FILLER_0_28_65
*1010 FILLER_0_28_77
*1011 FILLER_0_28_83
*1012 FILLER_0_28_85
*1013 FILLER_0_28_97
*1014 FILLER_0_29_105
*1015 FILLER_0_29_111
*1016 FILLER_0_29_113
*1017 FILLER_0_29_125
*1018 FILLER_0_29_137
*1019 FILLER_0_29_141
*1020 FILLER_0_29_146
*1021 FILLER_0_29_15
*1022 FILLER_0_29_158
*1023 FILLER_0_29_166
*1024 FILLER_0_29_174
*1025 FILLER_0_29_186
*1026 FILLER_0_29_203
*1027 FILLER_0_29_220
*1028 FILLER_0_29_238
*1029 FILLER_0_29_250
*1030 FILLER_0_29_254
*1031 FILLER_0_29_261
*1032 FILLER_0_29_268
*1033 FILLER_0_29_27
*1034 FILLER_0_29_288
*1035 FILLER_0_29_3
*1036 FILLER_0_29_305
*1037 FILLER_0_29_317
*1038 FILLER_0_29_329
*1039 FILLER_0_29_335
*1040 FILLER_0_29_337
*1041 FILLER_0_29_349
*1042 FILLER_0_29_39
*1043 FILLER_0_29_51
*1044 FILLER_0_29_55
*1045 FILLER_0_29_57
*1046 FILLER_0_29_69
*1047 FILLER_0_29_81
*1048 FILLER_0_29_93
*1049 FILLER_0_2_109
*1050 FILLER_0_2_121
*1051 FILLER_0_2_133
*1052 FILLER_0_2_139
*1053 FILLER_0_2_141
*1054 FILLER_0_2_15
*1055 FILLER_0_2_153
*1056 FILLER_0_2_165
*1057 FILLER_0_2_177
*1058 FILLER_0_2_189
*1059 FILLER_0_2_195
*1060 FILLER_0_2_197
*1061 FILLER_0_2_209
*1062 FILLER_0_2_221
*1063 FILLER_0_2_233
*1064 FILLER_0_2_245
*1065 FILLER_0_2_251
*1066 FILLER_0_2_253
*1067 FILLER_0_2_265
*1068 FILLER_0_2_27
*1069 FILLER_0_2_277
*1070 FILLER_0_2_289
*1071 FILLER_0_2_29
*1072 FILLER_0_2_3
*1073 FILLER_0_2_301
*1074 FILLER_0_2_307
*1075 FILLER_0_2_309
*1076 FILLER_0_2_321
*1077 FILLER_0_2_333
*1078 FILLER_0_2_345
*1079 FILLER_0_2_41
*1080 FILLER_0_2_53
*1081 FILLER_0_2_65
*1082 FILLER_0_2_77
*1083 FILLER_0_2_83
*1084 FILLER_0_2_85
*1085 FILLER_0_2_97
*1086 FILLER_0_30_109
*1087 FILLER_0_30_121
*1088 FILLER_0_30_133
*1089 FILLER_0_30_139
*1090 FILLER_0_30_15
*1091 FILLER_0_30_153
*1092 FILLER_0_30_181
*1093 FILLER_0_30_191
*1094 FILLER_0_30_195
*1095 FILLER_0_30_200
*1096 FILLER_0_30_218
*1097 FILLER_0_30_230
*1098 FILLER_0_30_247
*1099 FILLER_0_30_253
*1100 FILLER_0_30_263
*1101 FILLER_0_30_27
*1102 FILLER_0_30_272
*1103 FILLER_0_30_284
*1104 FILLER_0_30_29
*1105 FILLER_0_30_3
*1106 FILLER_0_30_314
*1107 FILLER_0_30_326
*1108 FILLER_0_30_338
*1109 FILLER_0_30_350
*1110 FILLER_0_30_41
*1111 FILLER_0_30_53
*1112 FILLER_0_30_65
*1113 FILLER_0_30_77
*1114 FILLER_0_30_83
*1115 FILLER_0_30_85
*1116 FILLER_0_30_97
*1117 FILLER_0_31_105
*1118 FILLER_0_31_111
*1119 FILLER_0_31_113
*1120 FILLER_0_31_125
*1121 FILLER_0_31_146
*1122 FILLER_0_31_15
*1123 FILLER_0_31_160
*1124 FILLER_0_31_174
*1125 FILLER_0_31_182
*1126 FILLER_0_31_189
*1127 FILLER_0_31_195
*1128 FILLER_0_31_201
*1129 FILLER_0_31_213
*1130 FILLER_0_31_225
*1131 FILLER_0_31_229
*1132 FILLER_0_31_235
*1133 FILLER_0_31_247
*1134 FILLER_0_31_259
*1135 FILLER_0_31_27
*1136 FILLER_0_31_271
*1137 FILLER_0_31_279
*1138 FILLER_0_31_297
*1139 FILLER_0_31_3
*1140 FILLER_0_31_310
*1141 FILLER_0_31_322
*1142 FILLER_0_31_334
*1143 FILLER_0_31_337
*1144 FILLER_0_31_349
*1145 FILLER_0_31_39
*1146 FILLER_0_31_51
*1147 FILLER_0_31_55
*1148 FILLER_0_31_57
*1149 FILLER_0_31_69
*1150 FILLER_0_31_81
*1151 FILLER_0_31_93
*1152 FILLER_0_32_109
*1153 FILLER_0_32_128
*1154 FILLER_0_32_134
*1155 FILLER_0_32_141
*1156 FILLER_0_32_149
*1157 FILLER_0_32_15
*1158 FILLER_0_32_157
*1159 FILLER_0_32_169
*1160 FILLER_0_32_181
*1161 FILLER_0_32_202
*1162 FILLER_0_32_214
*1163 FILLER_0_32_227
*1164 FILLER_0_32_253
*1165 FILLER_0_32_267
*1166 FILLER_0_32_27
*1167 FILLER_0_32_273
*1168 FILLER_0_32_283
*1169 FILLER_0_32_29
*1170 FILLER_0_32_295
*1171 FILLER_0_32_3
*1172 FILLER_0_32_307
*1173 FILLER_0_32_314
*1174 FILLER_0_32_326
*1175 FILLER_0_32_338
*1176 FILLER_0_32_350
*1177 FILLER_0_32_41
*1178 FILLER_0_32_53
*1179 FILLER_0_32_65
*1180 FILLER_0_32_77
*1181 FILLER_0_32_83
*1182 FILLER_0_32_85
*1183 FILLER_0_32_97
*1184 FILLER_0_33_105
*1185 FILLER_0_33_111
*1186 FILLER_0_33_113
*1187 FILLER_0_33_125
*1188 FILLER_0_33_15
*1189 FILLER_0_33_176
*1190 FILLER_0_33_191
*1191 FILLER_0_33_222
*1192 FILLER_0_33_225
*1193 FILLER_0_33_237
*1194 FILLER_0_33_243
*1195 FILLER_0_33_254
*1196 FILLER_0_33_27
*1197 FILLER_0_33_278
*1198 FILLER_0_33_287
*1199 FILLER_0_33_3
*1200 FILLER_0_33_316
*1201 FILLER_0_33_328
*1202 FILLER_0_33_337
*1203 FILLER_0_33_349
*1204 FILLER_0_33_39
*1205 FILLER_0_33_51
*1206 FILLER_0_33_55
*1207 FILLER_0_33_57
*1208 FILLER_0_33_69
*1209 FILLER_0_33_81
*1210 FILLER_0_33_93
*1211 FILLER_0_34_109
*1212 FILLER_0_34_117
*1213 FILLER_0_34_129
*1214 FILLER_0_34_133
*1215 FILLER_0_34_146
*1216 FILLER_0_34_15
*1217 FILLER_0_34_150
*1218 FILLER_0_34_170
*1219 FILLER_0_34_176
*1220 FILLER_0_34_180
*1221 FILLER_0_34_188
*1222 FILLER_0_34_192
*1223 FILLER_0_34_197
*1224 FILLER_0_34_211
*1225 FILLER_0_34_219
*1226 FILLER_0_34_234
*1227 FILLER_0_34_248
*1228 FILLER_0_34_266
*1229 FILLER_0_34_27
*1230 FILLER_0_34_278
*1231 FILLER_0_34_29
*1232 FILLER_0_34_290
*1233 FILLER_0_34_296
*1234 FILLER_0_34_3
*1235 FILLER_0_34_322
*1236 FILLER_0_34_334
*1237 FILLER_0_34_346
*1238 FILLER_0_34_350
*1239 FILLER_0_34_41
*1240 FILLER_0_34_53
*1241 FILLER_0_34_65
*1242 FILLER_0_34_77
*1243 FILLER_0_34_83
*1244 FILLER_0_34_85
*1245 FILLER_0_34_97
*1246 FILLER_0_35_105
*1247 FILLER_0_35_111
*1248 FILLER_0_35_113
*1249 FILLER_0_35_121
*1250 FILLER_0_35_133
*1251 FILLER_0_35_140
*1252 FILLER_0_35_15
*1253 FILLER_0_35_159
*1254 FILLER_0_35_167
*1255 FILLER_0_35_177
*1256 FILLER_0_35_191
*1257 FILLER_0_35_200
*1258 FILLER_0_35_212
*1259 FILLER_0_35_220
*1260 FILLER_0_35_239
*1261 FILLER_0_35_251
*1262 FILLER_0_35_255
*1263 FILLER_0_35_263
*1264 FILLER_0_35_27
*1265 FILLER_0_35_279
*1266 FILLER_0_35_3
*1267 FILLER_0_35_302
*1268 FILLER_0_35_324
*1269 FILLER_0_35_337
*1270 FILLER_0_35_349
*1271 FILLER_0_35_39
*1272 FILLER_0_35_51
*1273 FILLER_0_35_55
*1274 FILLER_0_35_57
*1275 FILLER_0_35_69
*1276 FILLER_0_35_81
*1277 FILLER_0_35_93
*1278 FILLER_0_36_109
*1279 FILLER_0_36_121
*1280 FILLER_0_36_129
*1281 FILLER_0_36_139
*1282 FILLER_0_36_146
*1283 FILLER_0_36_15
*1284 FILLER_0_36_158
*1285 FILLER_0_36_166
*1286 FILLER_0_36_170
*1287 FILLER_0_36_185
*1288 FILLER_0_36_193
*1289 FILLER_0_36_205
*1290 FILLER_0_36_213
*1291 FILLER_0_36_224
*1292 FILLER_0_36_236
*1293 FILLER_0_36_244
*1294 FILLER_0_36_251
*1295 FILLER_0_36_253
*1296 FILLER_0_36_265
*1297 FILLER_0_36_27
*1298 FILLER_0_36_277
*1299 FILLER_0_36_283
*1300 FILLER_0_36_288
*1301 FILLER_0_36_29
*1302 FILLER_0_36_295
*1303 FILLER_0_36_299
*1304 FILLER_0_36_3
*1305 FILLER_0_36_306
*1306 FILLER_0_36_317
*1307 FILLER_0_36_329
*1308 FILLER_0_36_341
*1309 FILLER_0_36_349
*1310 FILLER_0_36_41
*1311 FILLER_0_36_53
*1312 FILLER_0_36_65
*1313 FILLER_0_36_77
*1314 FILLER_0_36_83
*1315 FILLER_0_36_85
*1316 FILLER_0_36_97
*1317 FILLER_0_37_105
*1318 FILLER_0_37_111
*1319 FILLER_0_37_113
*1320 FILLER_0_37_126
*1321 FILLER_0_37_134
*1322 FILLER_0_37_142
*1323 FILLER_0_37_15
*1324 FILLER_0_37_150
*1325 FILLER_0_37_159
*1326 FILLER_0_37_196
*1327 FILLER_0_37_206
*1328 FILLER_0_37_222
*1329 FILLER_0_37_230
*1330 FILLER_0_37_244
*1331 FILLER_0_37_268
*1332 FILLER_0_37_27
*1333 FILLER_0_37_278
*1334 FILLER_0_37_295
*1335 FILLER_0_37_3
*1336 FILLER_0_37_314
*1337 FILLER_0_37_320
*1338 FILLER_0_37_332
*1339 FILLER_0_37_337
*1340 FILLER_0_37_349
*1341 FILLER_0_37_39
*1342 FILLER_0_37_51
*1343 FILLER_0_37_55
*1344 FILLER_0_37_57
*1345 FILLER_0_37_69
*1346 FILLER_0_37_81
*1347 FILLER_0_37_93
*1348 FILLER_0_38_102
*1349 FILLER_0_38_106
*1350 FILLER_0_38_110
*1351 FILLER_0_38_113
*1352 FILLER_0_38_118
*1353 FILLER_0_38_122
*1354 FILLER_0_38_126
*1355 FILLER_0_38_130
*1356 FILLER_0_38_134
*1357 FILLER_0_38_14
*1358 FILLER_0_38_147
*1359 FILLER_0_38_153
*1360 FILLER_0_38_159
*1361 FILLER_0_38_167
*1362 FILLER_0_38_169
*1363 FILLER_0_38_18
*1364 FILLER_0_38_181
*1365 FILLER_0_38_185
*1366 FILLER_0_38_189
*1367 FILLER_0_38_195
*1368 FILLER_0_38_197
*1369 FILLER_0_38_219
*1370 FILLER_0_38_22
*1371 FILLER_0_38_223
*1372 FILLER_0_38_225
*1373 FILLER_0_38_237
*1374 FILLER_0_38_245
*1375 FILLER_0_38_251
*1376 FILLER_0_38_253
*1377 FILLER_0_38_265
*1378 FILLER_0_38_270
*1379 FILLER_0_38_274
*1380 FILLER_0_38_278
*1381 FILLER_0_38_281
*1382 FILLER_0_38_287
*1383 FILLER_0_38_295
*1384 FILLER_0_38_3
*1385 FILLER_0_38_302
*1386 FILLER_0_38_315
*1387 FILLER_0_38_32
*1388 FILLER_0_38_333
*1389 FILLER_0_38_337
*1390 FILLER_0_38_349
*1391 FILLER_0_38_38
*1392 FILLER_0_38_42
*1393 FILLER_0_38_46
*1394 FILLER_0_38_50
*1395 FILLER_0_38_54
*1396 FILLER_0_38_57
*1397 FILLER_0_38_62
*1398 FILLER_0_38_66
*1399 FILLER_0_38_70
*1400 FILLER_0_38_74
*1401 FILLER_0_38_78
*1402 FILLER_0_38_88
*1403 FILLER_0_38_92
*1404 FILLER_0_38_97
*1405 FILLER_0_3_105
*1406 FILLER_0_3_111
*1407 FILLER_0_3_113
*1408 FILLER_0_3_125
*1409 FILLER_0_3_137
*1410 FILLER_0_3_149
*1411 FILLER_0_3_15
*1412 FILLER_0_3_161
*1413 FILLER_0_3_167
*1414 FILLER_0_3_169
*1415 FILLER_0_3_181
*1416 FILLER_0_3_193
*1417 FILLER_0_3_205
*1418 FILLER_0_3_217
*1419 FILLER_0_3_223
*1420 FILLER_0_3_225
*1421 FILLER_0_3_237
*1422 FILLER_0_3_249
*1423 FILLER_0_3_261
*1424 FILLER_0_3_27
*1425 FILLER_0_3_273
*1426 FILLER_0_3_279
*1427 FILLER_0_3_281
*1428 FILLER_0_3_293
*1429 FILLER_0_3_3
*1430 FILLER_0_3_305
*1431 FILLER_0_3_317
*1432 FILLER_0_3_329
*1433 FILLER_0_3_335
*1434 FILLER_0_3_337
*1435 FILLER_0_3_349
*1436 FILLER_0_3_39
*1437 FILLER_0_3_51
*1438 FILLER_0_3_55
*1439 FILLER_0_3_57
*1440 FILLER_0_3_69
*1441 FILLER_0_3_81
*1442 FILLER_0_3_93
*1443 FILLER_0_4_109
*1444 FILLER_0_4_121
*1445 FILLER_0_4_133
*1446 FILLER_0_4_139
*1447 FILLER_0_4_141
*1448 FILLER_0_4_15
*1449 FILLER_0_4_153
*1450 FILLER_0_4_165
*1451 FILLER_0_4_177
*1452 FILLER_0_4_189
*1453 FILLER_0_4_195
*1454 FILLER_0_4_197
*1455 FILLER_0_4_209
*1456 FILLER_0_4_221
*1457 FILLER_0_4_233
*1458 FILLER_0_4_245
*1459 FILLER_0_4_251
*1460 FILLER_0_4_253
*1461 FILLER_0_4_265
*1462 FILLER_0_4_27
*1463 FILLER_0_4_277
*1464 FILLER_0_4_289
*1465 FILLER_0_4_29
*1466 FILLER_0_4_3
*1467 FILLER_0_4_301
*1468 FILLER_0_4_307
*1469 FILLER_0_4_309
*1470 FILLER_0_4_321
*1471 FILLER_0_4_333
*1472 FILLER_0_4_345
*1473 FILLER_0_4_41
*1474 FILLER_0_4_53
*1475 FILLER_0_4_65
*1476 FILLER_0_4_77
*1477 FILLER_0_4_83
*1478 FILLER_0_4_85
*1479 FILLER_0_4_97
*1480 FILLER_0_5_105
*1481 FILLER_0_5_111
*1482 FILLER_0_5_113
*1483 FILLER_0_5_125
*1484 FILLER_0_5_137
*1485 FILLER_0_5_149
*1486 FILLER_0_5_15
*1487 FILLER_0_5_161
*1488 FILLER_0_5_167
*1489 FILLER_0_5_169
*1490 FILLER_0_5_181
*1491 FILLER_0_5_193
*1492 FILLER_0_5_205
*1493 FILLER_0_5_217
*1494 FILLER_0_5_223
*1495 FILLER_0_5_225
*1496 FILLER_0_5_237
*1497 FILLER_0_5_249
*1498 FILLER_0_5_261
*1499 FILLER_0_5_27
*1500 FILLER_0_5_273
*1501 FILLER_0_5_279
*1502 FILLER_0_5_281
*1503 FILLER_0_5_293
*1504 FILLER_0_5_3
*1505 FILLER_0_5_305
*1506 FILLER_0_5_317
*1507 FILLER_0_5_329
*1508 FILLER_0_5_335
*1509 FILLER_0_5_337
*1510 FILLER_0_5_349
*1511 FILLER_0_5_39
*1512 FILLER_0_5_51
*1513 FILLER_0_5_55
*1514 FILLER_0_5_57
*1515 FILLER_0_5_69
*1516 FILLER_0_5_81
*1517 FILLER_0_5_93
*1518 FILLER_0_6_109
*1519 FILLER_0_6_121
*1520 FILLER_0_6_133
*1521 FILLER_0_6_139
*1522 FILLER_0_6_141
*1523 FILLER_0_6_15
*1524 FILLER_0_6_153
*1525 FILLER_0_6_165
*1526 FILLER_0_6_177
*1527 FILLER_0_6_189
*1528 FILLER_0_6_195
*1529 FILLER_0_6_197
*1530 FILLER_0_6_209