*SPEF "ieee 1481-1999"
*DESIGN "tt_um_chip_SP_Soy_de_Zacapa"
*DATE "11:11:11 Fri 11 11, 1111"
*VENDOR "OpenRCX"
*PROGRAM "Parallel Extraction"
*VERSION "1.0"
*DESIGN_FLOW "NAME_SCOPE LOCAL" "PIN_CAP NONE"
*DIVIDER /
*DELIMITER :
*BUS_DELIMITER []
*T_UNIT 1 NS
*C_UNIT 1 PF
*R_UNIT 1 OHM
*L_UNIT 1 HENRY

*NAME_MAP
*3 clk
*4 ena
*5 rst_n
*6 ui_in[0]
*7 ui_in[1]
*8 ui_in[2]
*9 ui_in[3]
*10 ui_in[4]
*11 ui_in[5]
*12 ui_in[6]
*13 ui_in[7]
*14 uio_in[0]
*15 uio_in[1]
*16 uio_in[2]
*17 uio_in[3]
*18 uio_in[4]
*19 uio_in[5]
*20 uio_in[6]
*21 uio_in[7]
*22 net4
*23 net5
*24 net6
*25 net7
*26 net8
*27 net9
*28 net10
*29 net11
*30 net12
*31 net13
*32 net14
*33 net15
*34 net16
*35 net17
*36 net18
*37 net19
*38 uo_out[0]
*39 uo_out[1]
*40 uo_out[2]
*41 uo_out[3]
*42 uo_out[4]
*43 uo_out[5]
*44 uo_out[6]
*45 uo_out[7]
*46 _000_
*47 _001_
*48 _002_
*49 _003_
*50 _004_
*51 _005_
*52 _006_
*53 _007_
*54 _008_
*55 _009_
*56 _010_
*57 _011_
*58 _012_
*59 _013_
*60 _014_
*61 _015_
*62 _016_
*63 _017_
*64 _018_
*65 _019_
*66 _020_
*67 _021_
*68 _022_
*69 _023_
*70 _024_
*71 _025_
*72 _031_
*73 _032_
*74 _033_
*75 _034_
*76 _035_
*77 _036_
*78 _037_
*79 _038_
*80 _039_
*81 _040_
*82 _041_
*83 _042_
*84 _043_
*85 _044_
*86 _045_
*87 _046_
*88 _047_
*89 _048_
*90 _049_
*91 _050_
*92 _051_
*93 _052_
*94 _053_
*95 _054_
*96 _055_
*97 _056_
*98 _057_
*99 _058_
*100 _059_
*101 _060_
*102 _061_
*103 _062_
*104 _063_
*105 _064_
*106 _065_
*107 _066_
*108 _067_
*109 _068_
*110 _069_
*111 _070_
*112 _071_
*113 _072_
*114 _073_
*115 _074_
*116 _075_
*117 _076_
*118 _077_
*119 _078_
*120 _079_
*121 _080_
*122 _081_
*123 _082_
*124 _083_
*125 _084_
*126 _085_
*127 _086_
*128 _087_
*129 _088_
*130 _089_
*131 _090_
*132 _091_
*133 _092_
*134 _093_
*135 _094_
*136 _095_
*137 _096_
*138 _097_
*139 _098_
*140 _099_
*141 _100_
*142 _101_
*143 _102_
*144 _103_
*145 _104_
*146 _105_
*147 _106_
*148 _107_
*149 _108_
*150 _109_
*151 _110_
*152 _111_
*153 _112_
*154 _113_
*155 _114_
*156 _115_
*157 _116_
*158 _117_
*159 _118_
*160 _119_
*161 _120_
*162 _121_
*163 _122_
*164 _123_
*165 _124_
*166 _125_
*167 _126_
*168 _127_
*169 _128_
*170 _129_
*171 _130_
*172 _131_
*173 _132_
*174 _133_
*175 _134_
*176 _135_
*177 _136_
*178 _137_
*179 _138_
*180 _139_
*181 _140_
*182 _141_
*183 _142_
*184 _143_
*185 _144_
*186 _145_
*187 _146_
*188 _147_
*189 _148_
*190 _149_
*191 _150_
*192 _151_
*193 _152_
*194 _153_
*195 _154_
*196 _155_
*197 _156_
*198 _157_
*199 _158_
*200 _159_
*201 _160_
*202 _161_
*203 _162_
*204 _163_
*205 _164_
*206 _165_
*207 _166_
*208 _167_
*209 _168_
*210 _169_
*211 _170_
*212 _171_
*213 _172_
*214 _173_
*215 _174_
*216 _175_
*217 _176_
*218 _177_
*219 _178_
*220 _179_
*221 _180_
*222 _181_
*223 _182_
*224 _183_
*225 _184_
*226 _185_
*227 _186_
*228 _187_
*229 _188_
*230 _189_
*231 _190_
*232 _191_
*233 _192_
*234 _193_
*235 _194_
*236 _195_
*237 _196_
*238 _197_
*239 _198_
*240 _199_
*241 _200_
*242 _201_
*243 _202_
*244 _203_
*245 _204_
*246 _205_
*247 _206_
*248 _207_
*249 _208_
*250 _209_
*251 _210_
*252 _211_
*253 _212_
*254 _213_
*255 _214_
*256 _215_
*257 _216_
*258 _217_
*259 _218_
*260 _219_
*261 _220_
*262 _221_
*263 _222_
*264 _223_
*265 _224_
*266 _225_
*267 _226_
*268 _227_
*269 _228_
*270 _229_
*271 _230_
*272 _231_
*273 _232_
*274 _233_
*275 _234_
*276 _235_
*277 _236_
*278 _237_
*279 _238_
*280 _239_
*281 _240_
*282 _241_
*283 _242_
*284 _243_
*285 _244_
*286 _245_
*287 _246_
*288 _247_
*289 _248_
*290 _249_
*291 _250_
*292 _251_
*293 _252_
*294 _253_
*295 _254_
*296 _255_
*297 _256_
*298 _257_
*299 _258_
*300 _259_
*301 _260_
*302 _261_
*303 _262_
*304 _263_
*305 _264_
*306 _265_
*307 _266_
*308 _267_
*309 _268_
*310 _269_
*311 _270_
*312 _271_
*313 _272_
*314 _273_
*315 _274_
*316 _275_
*317 _276_
*318 _277_
*319 _278_
*320 _279_
*321 _280_
*322 _281_
*323 _282_
*324 _283_
*325 _284_
*326 _285_
*327 _286_
*328 _287_
*329 _288_
*330 _289_
*331 _290_
*332 _291_
*333 _292_
*334 _293_
*335 _294_
*336 _295_
*337 _296_
*338 _297_
*339 _298_
*340 _299_
*341 _300_
*342 _301_
*343 _302_
*344 _303_
*345 _304_
*346 _305_
*347 _306_
*348 _307_
*349 _308_
*350 _309_
*351 _310_
*352 _311_
*353 _312_
*354 _313_
*355 _314_
*356 _315_
*357 _316_
*358 _317_
*359 _318_
*360 _319_
*361 clknet_0_clk
*362 clknet_1_0__leaf_clk
*363 clknet_1_1__leaf_clk
*364 contador\[0\]
*365 contador\[10\]
*366 contador\[11\]
*367 contador\[1\]
*368 contador\[2\]
*369 contador\[3\]
*370 contador\[4\]
*371 contador\[5\]
*372 contador\[6\]
*373 contador\[7\]
*374 contador\[8\]
*375 contador\[9\]
*376 net1
*377 net2
*378 net20
*379 net21
*380 net22
*381 net23
*382 net24
*383 net25
*384 net26
*385 net3
*386 FILLER_0_0_109
*387 FILLER_0_0_113
*388 FILLER_0_0_125
*389 FILLER_0_0_137
*390 FILLER_0_0_141
*391 FILLER_0_0_15
*392 FILLER_0_0_153
*393 FILLER_0_0_165
*394 FILLER_0_0_169
*395 FILLER_0_0_181
*396 FILLER_0_0_193
*397 FILLER_0_0_197
*398 FILLER_0_0_209
*399 FILLER_0_0_221
*400 FILLER_0_0_225
*401 FILLER_0_0_237
*402 FILLER_0_0_249
*403 FILLER_0_0_253
*404 FILLER_0_0_265
*405 FILLER_0_0_27
*406 FILLER_0_0_277
*407 FILLER_0_0_281
*408 FILLER_0_0_29
*409 FILLER_0_0_293
*410 FILLER_0_0_3
*411 FILLER_0_0_305
*412 FILLER_0_0_309
*413 FILLER_0_0_321
*414 FILLER_0_0_333
*415 FILLER_0_0_337
*416 FILLER_0_0_349
*417 FILLER_0_0_41
*418 FILLER_0_0_53
*419 FILLER_0_0_57
*420 FILLER_0_0_69
*421 FILLER_0_0_81
*422 FILLER_0_0_85
*423 FILLER_0_0_97
*424 FILLER_0_10_109
*425 FILLER_0_10_121
*426 FILLER_0_10_133
*427 FILLER_0_10_139
*428 FILLER_0_10_141
*429 FILLER_0_10_15
*430 FILLER_0_10_153
*431 FILLER_0_10_165
*432 FILLER_0_10_177
*433 FILLER_0_10_189
*434 FILLER_0_10_195
*435 FILLER_0_10_197
*436 FILLER_0_10_209
*437 FILLER_0_10_221
*438 FILLER_0_10_233
*439 FILLER_0_10_245
*440 FILLER_0_10_251
*441 FILLER_0_10_253
*442 FILLER_0_10_265
*443 FILLER_0_10_27
*444 FILLER_0_10_277
*445 FILLER_0_10_289
*446 FILLER_0_10_29
*447 FILLER_0_10_3
*448 FILLER_0_10_301
*449 FILLER_0_10_307
*450 FILLER_0_10_309
*451 FILLER_0_10_321
*452 FILLER_0_10_333
*453 FILLER_0_10_345
*454 FILLER_0_10_41
*455 FILLER_0_10_53
*456 FILLER_0_10_65
*457 FILLER_0_10_77
*458 FILLER_0_10_83
*459 FILLER_0_10_85
*460 FILLER_0_10_97
*461 FILLER_0_11_105
*462 FILLER_0_11_111
*463 FILLER_0_11_113
*464 FILLER_0_11_125
*465 FILLER_0_11_137
*466 FILLER_0_11_149
*467 FILLER_0_11_15
*468 FILLER_0_11_161
*469 FILLER_0_11_167
*470 FILLER_0_11_169
*471 FILLER_0_11_181
*472 FILLER_0_11_193
*473 FILLER_0_11_205
*474 FILLER_0_11_217
*475 FILLER_0_11_223
*476 FILLER_0_11_225
*477 FILLER_0_11_237
*478 FILLER_0_11_249
*479 FILLER_0_11_261
*480 FILLER_0_11_27
*481 FILLER_0_11_273
*482 FILLER_0_11_279
*483 FILLER_0_11_281
*484 FILLER_0_11_293
*485 FILLER_0_11_3
*486 FILLER_0_11_305
*487 FILLER_0_11_317
*488 FILLER_0_11_329
*489 FILLER_0_11_335
*490 FILLER_0_11_337
*491 FILLER_0_11_349
*492 FILLER_0_11_39
*493 FILLER_0_11_51
*494 FILLER_0_11_55
*495 FILLER_0_11_57
*496 FILLER_0_11_69
*497 FILLER_0_11_81
*498 FILLER_0_11_93
*499 FILLER_0_12_109
*500 FILLER_0_12_121
*501 FILLER_0_12_133
*502 FILLER_0_12_139
*503 FILLER_0_12_141
*504 FILLER_0_12_15
*505 FILLER_0_12_153
*506 FILLER_0_12_165
*507 FILLER_0_12_177
*508 FILLER_0_12_189
*509 FILLER_0_12_195
*510 FILLER_0_12_197
*511 FILLER_0_12_209
*512 FILLER_0_12_221
*513 FILLER_0_12_233
*514 FILLER_0_12_245
*515 FILLER_0_12_251
*516 FILLER_0_12_253
*517 FILLER_0_12_265
*518 FILLER_0_12_27
*519 FILLER_0_12_277
*520 FILLER_0_12_289
*521 FILLER_0_12_29
*522 FILLER_0_12_3
*523 FILLER_0_12_301
*524 FILLER_0_12_307
*525 FILLER_0_12_309
*526 FILLER_0_12_321
*527 FILLER_0_12_333
*528 FILLER_0_12_345
*529 FILLER_0_12_41
*530 FILLER_0_12_53
*531 FILLER_0_12_65
*532 FILLER_0_12_77
*533 FILLER_0_12_83
*534 FILLER_0_12_85
*535 FILLER_0_12_97
*536 FILLER_0_13_105
*537 FILLER_0_13_111
*538 FILLER_0_13_113
*539 FILLER_0_13_125
*540 FILLER_0_13_137
*541 FILLER_0_13_149
*542 FILLER_0_13_15
*543 FILLER_0_13_161
*544 FILLER_0_13_167
*545 FILLER_0_13_169
*546 FILLER_0_13_181
*547 FILLER_0_13_193
*548 FILLER_0_13_205
*549 FILLER_0_13_217
*550 FILLER_0_13_223
*551 FILLER_0_13_225
*552 FILLER_0_13_237
*553 FILLER_0_13_249
*554 FILLER_0_13_261
*555 FILLER_0_13_27
*556 FILLER_0_13_273
*557 FILLER_0_13_279
*558 FILLER_0_13_281
*559 FILLER_0_13_293
*560 FILLER_0_13_3
*561 FILLER_0_13_305
*562 FILLER_0_13_317
*563 FILLER_0_13_329
*564 FILLER_0_13_335
*565 FILLER_0_13_337
*566 FILLER_0_13_349
*567 FILLER_0_13_39
*568 FILLER_0_13_51
*569 FILLER_0_13_55
*570 FILLER_0_13_57
*571 FILLER_0_13_69
*572 FILLER_0_13_81
*573 FILLER_0_13_93
*574 FILLER_0_14_109
*575 FILLER_0_14_121
*576 FILLER_0_14_133
*577 FILLER_0_14_139
*578 FILLER_0_14_141
*579 FILLER_0_14_15
*580 FILLER_0_14_153
*581 FILLER_0_14_165
*582 FILLER_0_14_177
*583 FILLER_0_14_189
*584 FILLER_0_14_195
*585 FILLER_0_14_197
*586 FILLER_0_14_209
*587 FILLER_0_14_221
*588 FILLER_0_14_233
*589 FILLER_0_14_245
*590 FILLER_0_14_251
*591 FILLER_0_14_253
*592 FILLER_0_14_265
*593 FILLER_0_14_27
*594 FILLER_0_14_277
*595 FILLER_0_14_289
*596 FILLER_0_14_29
*597 FILLER_0_14_3
*598 FILLER_0_14_301
*599 FILLER_0_14_307
*600 FILLER_0_14_309
*601 FILLER_0_14_321
*602 FILLER_0_14_333
*603 FILLER_0_14_345
*604 FILLER_0_14_41
*605 FILLER_0_14_53
*606 FILLER_0_14_65
*607 FILLER_0_14_77
*608 FILLER_0_14_83
*609 FILLER_0_14_85
*610 FILLER_0_14_97
*611 FILLER_0_15_105
*612 FILLER_0_15_111
*613 FILLER_0_15_113
*614 FILLER_0_15_125
*615 FILLER_0_15_137
*616 FILLER_0_15_149
*617 FILLER_0_15_15
*618 FILLER_0_15_161
*619 FILLER_0_15_167
*620 FILLER_0_15_169
*621 FILLER_0_15_181
*622 FILLER_0_15_193
*623 FILLER_0_15_205
*624 FILLER_0_15_217
*625 FILLER_0_15_223
*626 FILLER_0_15_225
*627 FILLER_0_15_237
*628 FILLER_0_15_249
*629 FILLER_0_15_261
*630 FILLER_0_15_27
*631 FILLER_0_15_273
*632 FILLER_0_15_279
*633 FILLER_0_15_281
*634 FILLER_0_15_293
*635 FILLER_0_15_3
*636 FILLER_0_15_305
*637 FILLER_0_15_317
*638 FILLER_0_15_329
*639 FILLER_0_15_335
*640 FILLER_0_15_337
*641 FILLER_0_15_349
*642 FILLER_0_15_39
*643 FILLER_0_15_51
*644 FILLER_0_15_55
*645 FILLER_0_15_57
*646 FILLER_0_15_69
*647 FILLER_0_15_81
*648 FILLER_0_15_93
*649 FILLER_0_16_109
*650 FILLER_0_16_121
*651 FILLER_0_16_133
*652 FILLER_0_16_139
*653 FILLER_0_16_141
*654 FILLER_0_16_15
*655 FILLER_0_16_153
*656 FILLER_0_16_165
*657 FILLER_0_16_177
*658 FILLER_0_16_189
*659 FILLER_0_16_195
*660 FILLER_0_16_197
*661 FILLER_0_16_209
*662 FILLER_0_16_221
*663 FILLER_0_16_233
*664 FILLER_0_16_245
*665 FILLER_0_16_251
*666 FILLER_0_16_253
*667 FILLER_0_16_265
*668 FILLER_0_16_27
*669 FILLER_0_16_277
*670 FILLER_0_16_289
*671 FILLER_0_16_29
*672 FILLER_0_16_3
*673 FILLER_0_16_301
*674 FILLER_0_16_307
*675 FILLER_0_16_309
*676 FILLER_0_16_321
*677 FILLER_0_16_333
*678 FILLER_0_16_345
*679 FILLER_0_16_41
*680 FILLER_0_16_53
*681 FILLER_0_16_65
*682 FILLER_0_16_77
*683 FILLER_0_16_83
*684 FILLER_0_16_85
*685 FILLER_0_16_97
*686 FILLER_0_17_105
*687 FILLER_0_17_111
*688 FILLER_0_17_113
*689 FILLER_0_17_125
*690 FILLER_0_17_137
*691 FILLER_0_17_149
*692 FILLER_0_17_15
*693 FILLER_0_17_161
*694 FILLER_0_17_167
*695 FILLER_0_17_169
*696 FILLER_0_17_181
*697 FILLER_0_17_193
*698 FILLER_0_17_205
*699 FILLER_0_17_217
*700 FILLER_0_17_223
*701 FILLER_0_17_225
*702 FILLER_0_17_237
*703 FILLER_0_17_249
*704 FILLER_0_17_261
*705 FILLER_0_17_27
*706 FILLER_0_17_273
*707 FILLER_0_17_279
*708 FILLER_0_17_281
*709 FILLER_0_17_293
*710 FILLER_0_17_3
*711 FILLER_0_17_305
*712 FILLER_0_17_317
*713 FILLER_0_17_329
*714 FILLER_0_17_335
*715 FILLER_0_17_337
*716 FILLER_0_17_349
*717 FILLER_0_17_39
*718 FILLER_0_17_51
*719 FILLER_0_17_55
*720 FILLER_0_17_57
*721 FILLER_0_17_69
*722 FILLER_0_17_81
*723 FILLER_0_17_93
*724 FILLER_0_18_109
*725 FILLER_0_18_121
*726 FILLER_0_18_133
*727 FILLER_0_18_139
*728 FILLER_0_18_141
*729 FILLER_0_18_15
*730 FILLER_0_18_153
*731 FILLER_0_18_165
*732 FILLER_0_18_177
*733 FILLER_0_18_189
*734 FILLER_0_18_195
*735 FILLER_0_18_197
*736 FILLER_0_18_209
*737 FILLER_0_18_221
*738 FILLER_0_18_233
*739 FILLER_0_18_245
*740 FILLER_0_18_251
*741 FILLER_0_18_253
*742 FILLER_0_18_265
*743 FILLER_0_18_27
*744 FILLER_0_18_277
*745 FILLER_0_18_289
*746 FILLER_0_18_29
*747 FILLER_0_18_3
*748 FILLER_0_18_301
*749 FILLER_0_18_307
*750 FILLER_0_18_309
*751 FILLER_0_18_321
*752 FILLER_0_18_333
*753 FILLER_0_18_345
*754 FILLER_0_18_41
*755 FILLER_0_18_53
*756 FILLER_0_18_65
*757 FILLER_0_18_77
*758 FILLER_0_18_83
*759 FILLER_0_18_85
*760 FILLER_0_18_97
*761 FILLER_0_19_105
*762 FILLER_0_19_111
*763 FILLER_0_19_113
*764 FILLER_0_19_125
*765 FILLER_0_19_137
*766 FILLER_0_19_149
*767 FILLER_0_19_15
*768 FILLER_0_19_161
*769 FILLER_0_19_167
*770 FILLER_0_19_169
*771 FILLER_0_19_181
*772 FILLER_0_19_193
*773 FILLER_0_19_205
*774 FILLER_0_19_217
*775 FILLER_0_19_223
*776 FILLER_0_19_225
*777 FILLER_0_19_237
*778 FILLER_0_19_249
*779 FILLER_0_19_261
*780 FILLER_0_19_27
*781 FILLER_0_19_273
*782 FILLER_0_19_279
*783 FILLER_0_19_281
*784 FILLER_0_19_293
*785 FILLER_0_19_3
*786 FILLER_0_19_305
*787 FILLER_0_19_317
*788 FILLER_0_19_329
*789 FILLER_0_19_335
*790 FILLER_0_19_337
*791 FILLER_0_19_349
*792 FILLER_0_19_39
*793 FILLER_0_19_51
*794 FILLER_0_19_55
*795 FILLER_0_19_57
*796 FILLER_0_19_69
*797 FILLER_0_19_81
*798 FILLER_0_19_93
*799 FILLER_0_1_105
*800 FILLER_0_1_111
*801 FILLER_0_1_113
*802 FILLER_0_1_125
*803 FILLER_0_1_137
*804 FILLER_0_1_149
*805 FILLER_0_1_15
*806 FILLER_0_1_161
*807 FILLER_0_1_167
*808 FILLER_0_1_169
*809 FILLER_0_1_181
*810 FILLER_0_1_193
*811 FILLER_0_1_205
*812 FILLER_0_1_217
*813 FILLER_0_1_223
*814 FILLER_0_1_225
*815 FILLER_0_1_237
*816 FILLER_0_1_249
*817 FILLER_0_1_261
*818 FILLER_0_1_27
*819 FILLER_0_1_273
*820 FILLER_0_1_279
*821 FILLER_0_1_281
*822 FILLER_0_1_293
*823 FILLER_0_1_3
*824 FILLER_0_1_305
*825 FILLER_0_1_317
*826 FILLER_0_1_329
*827 FILLER_0_1_335
*828 FILLER_0_1_337
*829 FILLER_0_1_349
*830 FILLER_0_1_39
*831 FILLER_0_1_51
*832 FILLER_0_1_55
*833 FILLER_0_1_57
*834 FILLER_0_1_69
*835 FILLER_0_1_81
*836 FILLER_0_1_93
*837 FILLER_0_20_109
*838 FILLER_0_20_121
*839 FILLER_0_20_133
*840 FILLER_0_20_139
*841 FILLER_0_20_141
*842 FILLER_0_20_15
*843 FILLER_0_20_153
*844 FILLER_0_20_165
*845 FILLER_0_20_177
*846 FILLER_0_20_189
*847 FILLER_0_20_195
*848 FILLER_0_20_197
*849 FILLER_0_20_209
*850 FILLER_0_20_221
*851 FILLER_0_20_233
*852 FILLER_0_20_245
*853 FILLER_0_20_251
*854 FILLER_0_20_253
*855 FILLER_0_20_265
*856 FILLER_0_20_27
*857 FILLER_0_20_277
*858 FILLER_0_20_289
*859 FILLER_0_20_29
*860 FILLER_0_20_3
*861 FILLER_0_20_301
*862 FILLER_0_20_307
*863 FILLER_0_20_309
*864 FILLER_0_20_321
*865 FILLER_0_20_333
*866 FILLER_0_20_345
*867 FILLER_0_20_41
*868 FILLER_0_20_53
*869 FILLER_0_20_65
*870 FILLER_0_20_77
*871 FILLER_0_20_83
*872 FILLER_0_20_85
*873 FILLER_0_20_97
*874 FILLER_0_21_105
*875 FILLER_0_21_111
*876 FILLER_0_21_113
*877 FILLER_0_21_125
*878 FILLER_0_21_137
*879 FILLER_0_21_149
*880 FILLER_0_21_15
*881 FILLER_0_21_161
*882 FILLER_0_21_167
*883 FILLER_0_21_169
*884 FILLER_0_21_181
*885 FILLER_0_21_193
*886 FILLER_0_21_205
*887 FILLER_0_21_217
*888 FILLER_0_21_223
*889 FILLER_0_21_225
*890 FILLER_0_21_237
*891 FILLER_0_21_249
*892 FILLER_0_21_261
*893 FILLER_0_21_27
*894 FILLER_0_21_273
*895 FILLER_0_21_279
*896 FILLER_0_21_281
*897 FILLER_0_21_293
*898 FILLER_0_21_3
*899 FILLER_0_21_302
*900 FILLER_0_21_314
*901 FILLER_0_21_326
*902 FILLER_0_21_334
*903 FILLER_0_21_337
*904 FILLER_0_21_349
*905 FILLER_0_21_39
*906 FILLER_0_21_51
*907 FILLER_0_21_55
*908 FILLER_0_21_57
*909 FILLER_0_21_69
*910 FILLER_0_21_81
*911 FILLER_0_21_93
*912 FILLER_0_22_109
*913 FILLER_0_22_121
*914 FILLER_0_22_133
*915 FILLER_0_22_139
*916 FILLER_0_22_141
*917 FILLER_0_22_15
*918 FILLER_0_22_153
*919 FILLER_0_22_165
*920 FILLER_0_22_177
*921 FILLER_0_22_189
*922 FILLER_0_22_195
*923 FILLER_0_22_197
*924 FILLER_0_22_205
*925 FILLER_0_22_216
*926 FILLER_0_22_221
*927 FILLER_0_22_248
*928 FILLER_0_22_260
*929 FILLER_0_22_27
*930 FILLER_0_22_280
*931 FILLER_0_22_29
*932 FILLER_0_22_3
*933 FILLER_0_22_307
*934 FILLER_0_22_309
*935 FILLER_0_22_321
*936 FILLER_0_22_333
*937 FILLER_0_22_345
*938 FILLER_0_22_41
*939 FILLER_0_22_53
*940 FILLER_0_22_65
*941 FILLER_0_22_77
*942 FILLER_0_22_83
*943 FILLER_0_22_85
*944 FILLER_0_22_97
*945 FILLER_0_23_105
*946 FILLER_0_23_111
*947 FILLER_0_23_113
*948 FILLER_0_23_125
*949 FILLER_0_23_137
*950 FILLER_0_23_149
*951 FILLER_0_23_15
*952 FILLER_0_23_161
*953 FILLER_0_23_167
*954 FILLER_0_23_174
*955 FILLER_0_23_182
*956 FILLER_0_23_193
*957 FILLER_0_23_199
*958 FILLER_0_23_216
*959 FILLER_0_23_223
*960 FILLER_0_23_241
*961 FILLER_0_23_254
*962 FILLER_0_23_264
*963 FILLER_0_23_268
*964 FILLER_0_23_27
*965 FILLER_0_23_294
*966 FILLER_0_23_3
*967 FILLER_0_23_304
*968 FILLER_0_23_329
*969 FILLER_0_23_335
*970 FILLER_0_23_337
*971 FILLER_0_23_349
*972 FILLER_0_23_39
*973 FILLER_0_23_51
*974 FILLER_0_23_55
*975 FILLER_0_23_57
*976 FILLER_0_23_69
*977 FILLER_0_23_81
*978 FILLER_0_23_93
*979 FILLER_0_24_109
*980 FILLER_0_24_121
*981 FILLER_0_24_136
*982 FILLER_0_24_15
*983 FILLER_0_24_157
*984 FILLER_0_24_163
*985 FILLER_0_24_175
*986 FILLER_0_24_192
*987 FILLER_0_24_197
*988 FILLER_0_24_224
*989 FILLER_0_24_228
*990 FILLER_0_24_234
*991 FILLER_0_24_253
*992 FILLER_0_24_27
*993 FILLER_0_24_285
*994 FILLER_0_24_29
*995 FILLER_0_24_291
*996 FILLER_0_24_299
*997 FILLER_0_24_3
*998 FILLER_0_24_309
*999 FILLER_0_24_346
*1000 FILLER_0_24_350
*1001 FILLER_0_24_41
*1002 FILLER_0_24_53
*1003 FILLER_0_24_65
*1004 FILLER_0_24_77
*1005 FILLER_0_24_83
*1006 FILLER_0_24_85
*1007 FILLER_0_24_97
*1008 FILLER_0_25_105
*1009 FILLER_0_25_111
*1010 FILLER_0_25_121
*1011 FILLER_0_25_135
*1012 FILLER_0_25_143
*1013 FILLER_0_25_15
*1014 FILLER_0_25_163
*1015 FILLER_0_25_167
*1016 FILLER_0_25_187
*1017 FILLER_0_25_201
*1018 FILLER_0_25_211
*1019 FILLER_0_25_225
*1020 FILLER_0_25_239
*1021 FILLER_0_25_256
*1022 FILLER_0_25_266
*1023 FILLER_0_25_27
*1024 FILLER_0_25_275
*1025 FILLER_0_25_279
*1026 FILLER_0_25_3
*1027 FILLER_0_25_300
*1028 FILLER_0_25_313
*1029 FILLER_0_25_319
*1030 FILLER_0_25_331
*1031 FILLER_0_25_335
*1032 FILLER_0_25_337
*1033 FILLER_0_25_341
*1034 FILLER_0_25_349
*1035 FILLER_0_25_39
*1036 FILLER_0_25_51
*1037 FILLER_0_25_55
*1038 FILLER_0_25_57
*1039 FILLER_0_25_69
*1040 FILLER_0_25_81
*1041 FILLER_0_25_93
*1042 FILLER_0_26_123
*1043 FILLER_0_26_127
*1044 FILLER_0_26_137
*1045 FILLER_0_26_148
*1046 FILLER_0_26_15
*1047 FILLER_0_26_171
*1048 FILLER_0_26_175
*1049 FILLER_0_26_180
*1050 FILLER_0_26_188
*1051 FILLER_0_26_195
*1052 FILLER_0_26_197
*1053 FILLER_0_26_205
*1054 FILLER_0_26_219
*1055 FILLER_0_26_231
*1056 FILLER_0_26_239
*1057 FILLER_0_26_251
*1058 FILLER_0_26_263
*1059 FILLER_0_26_267
*1060 FILLER_0_26_27
*1061 FILLER_0_26_274
*1062 FILLER_0_26_285
*1063 FILLER_0_26_29
*1064 FILLER_0_26_3
*1065 FILLER_0_26_303
*1066 FILLER_0_26_307
*1067 FILLER_0_26_41
*1068 FILLER_0_26_53
*1069 FILLER_0_26_65
*1070 FILLER_0_26_77
*1071 FILLER_0_26_83
*1072 FILLER_0_26_85
*1073 FILLER_0_26_93
*1074 FILLER_0_27_102
*1075 FILLER_0_27_110
*1076 FILLER_0_27_113
*1077 FILLER_0_27_129
*1078 FILLER_0_27_137
*1079 FILLER_0_27_144
*1080 FILLER_0_27_15
*1081 FILLER_0_27_150
*1082 FILLER_0_27_157
*1083 FILLER_0_27_178
*1084 FILLER_0_27_201
*1085 FILLER_0_27_213
*1086 FILLER_0_27_221
*1087 FILLER_0_27_225
*1088 FILLER_0_27_241
*1089 FILLER_0_27_250
*1090 FILLER_0_27_261
*1091 FILLER_0_27_265
*1092 FILLER_0_27_27
*1093 FILLER_0_27_277
*1094 FILLER_0_27_288
*1095 FILLER_0_27_3
*1096 FILLER_0_27_300
*1097 FILLER_0_27_312
*1098 FILLER_0_27_320
*1099 FILLER_0_27_326
*1100 FILLER_0_27_330
*1101 FILLER_0_27_334
*1102 FILLER_0_27_337
*1103 FILLER_0_27_342
*1104 FILLER_0_27_350
*1105 FILLER_0_27_39
*1106 FILLER_0_27_51
*1107 FILLER_0_27_55
*1108 FILLER_0_27_57
*1109 FILLER_0_27_69
*1110 FILLER_0_27_81
*1111 FILLER_0_27_93
*1112 FILLER_0_28_116
*1113 FILLER_0_28_138
*1114 FILLER_0_28_15
*1115 FILLER_0_28_157
*1116 FILLER_0_28_167
*1117 FILLER_0_28_175
*1118 FILLER_0_28_181
*1119 FILLER_0_28_189
*1120 FILLER_0_28_193
*1121 FILLER_0_28_197
*1122 FILLER_0_28_205
*1123 FILLER_0_28_215
*1124 FILLER_0_28_226
*1125 FILLER_0_28_240
*1126 FILLER_0_28_251
*1127 FILLER_0_28_27
*1128 FILLER_0_28_288
*1129 FILLER_0_28_29
*1130 FILLER_0_28_296
*1131 FILLER_0_28_3
*1132 FILLER_0_28_328
*1133 FILLER_0_28_349
*1134 FILLER_0_28_41
*1135 FILLER_0_28_53
*1136 FILLER_0_28_65
*1137 FILLER_0_28_77
*1138 FILLER_0_28_83
*1139 FILLER_0_28_85
*1140 FILLER_0_29_107
*1141 FILLER_0_29_111
*1142 FILLER_0_29_113
*1143 FILLER_0_29_121
*1144 FILLER_0_29_130
*1145 FILLER_0_29_142
*1146 FILLER_0_29_15
*1147 FILLER_0_29_154
*1148 FILLER_0_29_160
*1149 FILLER_0_29_169
*1150 FILLER_0_29_178
*1151 FILLER_0_29_182
*1152 FILLER_0_29_198
*1153 FILLER_0_29_211
*1154 FILLER_0_29_232
*1155 FILLER_0_29_244
*1156 FILLER_0_29_254
*1157 FILLER_0_29_265
*1158 FILLER_0_29_27
*1159 FILLER_0_29_272
*1160 FILLER_0_29_279
*1161 FILLER_0_29_281
*1162 FILLER_0_29_3
*1163 FILLER_0_29_303
*1164 FILLER_0_29_315
*1165 FILLER_0_29_321
*1166 FILLER_0_29_327
*1167 FILLER_0_29_332
*1168 FILLER_0_29_337
*1169 FILLER_0_29_343
*1170 FILLER_0_29_39
*1171 FILLER_0_29_51
*1172 FILLER_0_29_55
*1173 FILLER_0_29_57
*1174 FILLER_0_29_69
*1175 FILLER_0_29_81
*1176 FILLER_0_29_93
*1177 FILLER_0_2_109
*1178 FILLER_0_2_121
*1179 FILLER_0_2_133
*1180 FILLER_0_2_139
*1181 FILLER_0_2_141
*1182 FILLER_0_2_15
*1183 FILLER_0_2_153
*1184 FILLER_0_2_165
*1185 FILLER_0_2_177
*1186 FILLER_0_2_189
*1187 FILLER_0_2_195
*1188 FILLER_0_2_197
*1189 FILLER_0_2_209
*1190 FILLER_0_2_221
*1191 FILLER_0_2_233
*1192 FILLER_0_2_245
*1193 FILLER_0_2_251
*1194 FILLER_0_2_253
*1195 FILLER_0_2_265
*1196 FILLER_0_2_27
*1197 FILLER_0_2_277
*1198 FILLER_0_2_289
*1199 FILLER_0_2_29
*1200 FILLER_0_2_3
*1201 FILLER_0_2_301
*1202 FILLER_0_2_307
*1203 FILLER_0_2_309
*1204 FILLER_0_2_321
*1205 FILLER_0_2_333
*1206 FILLER_0_2_345
*1207 FILLER_0_2_41
*1208 FILLER_0_2_53
*1209 FILLER_0_2_65
*1210 FILLER_0_2_77
*1211 FILLER_0_2_83
*1212 FILLER_0_2_85
*1213 FILLER_0_2_97
*1214 FILLER_0_30_109
*1215 FILLER_0_30_113
*1216 FILLER_0_30_128
*1217 FILLER_0_30_139
*1218 FILLER_0_30_141
*1219 FILLER_0_30_147
*1220 FILLER_0_30_15
*1221 FILLER_0_30_153
*1222 FILLER_0_30_168
*1223 FILLER_0_30_176
*1224 FILLER_0_30_180
*1225 FILLER_0_30_192
*1226 FILLER_0_30_197
*1227 FILLER_0_30_248
*1228 FILLER_0_30_266
*1229 FILLER_0_30_27
*1230 FILLER_0_30_277
*1231 FILLER_0_30_285
*1232 FILLER_0_30_29
*1233 FILLER_0_30_295
*1234 FILLER_0_30_3
*1235 FILLER_0_30_303
*1236 FILLER_0_30_307
*1237 FILLER_0_30_316
*1238 FILLER_0_30_326
*1239 FILLER_0_30_41
*1240 FILLER_0_30_53
*1241 FILLER_0_30_65
*1242 FILLER_0_30_77
*1243 FILLER_0_30_83
*1244 FILLER_0_30_85
*1245 FILLER_0_31_107
*1246 FILLER_0_31_111
*1247 FILLER_0_31_113
*1248 FILLER_0_31_121
*1249 FILLER_0_31_126
*1250 FILLER_0_31_143
*1251 FILLER_0_31_15
*1252 FILLER_0_31_151
*1253 FILLER_0_31_156
*1254 FILLER_0_31_160
*1255 FILLER_0_31_175
*1256 FILLER_0_31_190
*1257 FILLER_0_31_205
*1258 FILLER_0_31_217
*1259 FILLER_0_31_225
*1260 FILLER_0_31_239
*1261 FILLER_0_31_252
*1262 FILLER_0_31_258
*1263 FILLER_0_31_27
*1264 FILLER_0_31_279
*1265 FILLER_0_31_281
*1266 FILLER_0_31_285
*1267 FILLER_0_31_289
*1268 FILLER_0_31_3
*1269 FILLER_0_31_321
*1270 FILLER_0_31_325
*1271 FILLER_0_31_330
*1272 FILLER_0_31_337
*1273 FILLER_0_31_349
*1274 FILLER_0_31_39
*1275 FILLER_0_31_51
*1276 FILLER_0_31_55
*1277 FILLER_0_31_57
*1278 FILLER_0_31_69
*1279 FILLER_0_31_81
*1280 FILLER_0_31_89
*1281 FILLER_0_31_99
*1282 FILLER_0_32_102
*1283 FILLER_0_32_110
*1284 FILLER_0_32_118
*1285 FILLER_0_32_124
*1286 FILLER_0_32_128
*1287 FILLER_0_32_132
*1288 FILLER_0_32_141
*1289 FILLER_0_32_149
*1290 FILLER_0_32_15
*1291 FILLER_0_32_157
*1292 FILLER_0_32_163
*1293 FILLER_0_32_195
*1294 FILLER_0_32_204
*1295 FILLER_0_32_212
*1296 FILLER_0_32_231
*1297 FILLER_0_32_239
*1298 FILLER_0_32_250
*1299 FILLER_0_32_253
*1300 FILLER_0_32_257
*1301 FILLER_0_32_265
*1302 FILLER_0_32_27
*1303 FILLER_0_32_283
*1304 FILLER_0_32_29
*1305 FILLER_0_32_295
*1306 FILLER_0_32_3
*1307 FILLER_0_32_302
*1308 FILLER_0_32_309
*1309 FILLER_0_32_313
*1310 FILLER_0_32_317
*1311 FILLER_0_32_329
*1312 FILLER_0_32_341
*1313 FILLER_0_32_349
*1314 FILLER_0_32_41
*1315 FILLER_0_32_53
*1316 FILLER_0_32_65
*1317 FILLER_0_32_77
*1318 FILLER_0_32_83
*1319 FILLER_0_32_85
*1320 FILLER_0_33_101
*1321 FILLER_0_33_105
*1322 FILLER_0_33_111
*1323 FILLER_0_33_113
*1324 FILLER_0_33_122
*1325 FILLER_0_33_135
*1326 FILLER_0_33_15
*1327 FILLER_0_33_154
*1328 FILLER_0_33_163
*1329 FILLER_0_33_167
*1330 FILLER_0_33_188
*1331 FILLER_0_33_199
*1332 FILLER_0_33_220
*1333 FILLER_0_33_225
*1334 FILLER_0_33_244
*1335 FILLER_0_33_256
*1336 FILLER_0_33_268
*1337 FILLER_0_33_27
*1338 FILLER_0_33_278
*1339 FILLER_0_33_281
*1340 FILLER_0_33_289
*1341 FILLER_0_33_295
*1342 FILLER_0_33_3
*1343 FILLER_0_33_304
*1344 FILLER_0_33_333
*1345 FILLER_0_33_343
*1346 FILLER_0_33_39
*1347 FILLER_0_33_51
*1348 FILLER_0_33_55
*1349 FILLER_0_33_57
*1350 FILLER_0_33_69
*1351 FILLER_0_33_81
*1352 FILLER_0_33_97
*1353 FILLER_0_34_107
*1354 FILLER_0_34_114
*1355 FILLER_0_34_123
*1356 FILLER_0_34_131
*1357 FILLER_0_34_137
*1358 FILLER_0_34_141
*1359 FILLER_0_34_15
*1360 FILLER_0_34_158
*1361 FILLER_0_34_164
*1362 FILLER_0_34_186
*1363 FILLER_0_34_192
*1364 FILLER_0_34_197
*1365 FILLER_0_34_207
*1366 FILLER_0_34_219
*1367 FILLER_0_34_233
*1368 FILLER_0_34_237
*1369 FILLER_0_34_250
*1370 FILLER_0_34_258
*1371 FILLER_0_34_266
*1372 FILLER_0_34_27
*1373 FILLER_0_34_279
*1374 FILLER_0_34_287
*1375 FILLER_0_34_29
*1376 FILLER_0_34_3
*1377 FILLER_0_34_309
*1378 FILLER_0_34_348
*1379 FILLER_0_34_41
*1380 FILLER_0_34_53
*1381 FILLER_0_34_65
*1382 FILLER_0_34_77
*1383 FILLER_0_34_83
*1384 FILLER_0_34_85
*1385 FILLER_0_34_91
*1386 FILLER_0_35_102
*1387 FILLER_0_35_110
*1388 FILLER_0_35_113
*1389 FILLER_0_35_129
*1390 FILLER_0_35_133
*1391 FILLER_0_35_140
*1392 FILLER_0_35_144
*1393 FILLER_0_35_15
*1394 FILLER_0_35_158
*1395 FILLER_0_35_167
*1396 FILLER_0_35_169
*1397 FILLER_0_35_179
*1398 FILLER_0_35_183
*1399 FILLER_0_35_197
*1400 FILLER_0_35_203
*1401 FILLER_0_35_221
*1402 FILLER_0_35_256
*1403 FILLER_0_35_27
*1404 FILLER_0_35_272
*1405 FILLER_0_35_281
*1406 FILLER_0_35_293
*1407 FILLER_0_35_3
*1408 FILLER_0_35_305
*1409 FILLER_0_35_330
*1410 FILLER_0_35_335
*1411 FILLER_0_35_340
*1412 FILLER_0_35_348
*1413 FILLER_0_35_39
*1414 FILLER_0_35_51
*1415 FILLER_0_35_55
*1416 FILLER_0_35_57
*1417 FILLER_0_35_69
*1418 FILLER_0_35_73
*1419 FILLER_0_35_93
*1420 FILLER_0_36_106
*1421 FILLER_0_36_118
*1422 FILLER_0_36_128
*1423 FILLER_0_36_15
*1424 FILLER_0_36_150
*1425 FILLER_0_36_162
*1426 FILLER_0_36_170
*1427 FILLER_0_36_182
*1428 FILLER_0_36_194
*1429 FILLER_0_36_197
*1430 FILLER_0_36_205
*1431 FILLER_0_36_217
*1432 FILLER_0_36_229
*1433 FILLER_0_36_241
*1434 FILLER_0_36_249
*1435 FILLER_0_36_253
*1436 FILLER_0_36_265
*1437 FILLER_0_36_27
*1438 FILLER_0_36_277
*1439 FILLER_0_36_289
*1440 FILLER_0_36_29
*1441 FILLER_0_36_3
*1442 FILLER_0_36_301
*1443 FILLER_0_36_309
*1444 FILLER_0_36_333
*1445 FILLER_0_36_345
*1446 FILLER_0_36_41
*1447 FILLER_0_36_53
*1448 FILLER_0_36_65
*1449 FILLER_0_36_77
*1450 FILLER_0_36_81
*1451 FILLER_0_36_94
*1452 FILLER_0_37_103
*1453 FILLER_0_37_110
*1454 FILLER_0_37_135
*1455 FILLER_0_37_15
*1456 FILLER_0_37_158
*1457 FILLER_0_37_166
*1458 FILLER_0_37_169
*1459 FILLER_0_37_177
*1460 FILLER_0_37_185
*1461 FILLER_0_37_191
*1462 FILLER_0_37_195
*1463 FILLER_0_37_201
*1464 FILLER_0_37_209
*1465 FILLER_0_37_221
*1466 FILLER_0_37_225
*1467 FILLER_0_37_247
*1468 FILLER_0_37_259
*1469 FILLER_0_37_27
*1470 FILLER_0_37_271
*1471 FILLER_0_37_279
*1472 FILLER_0_37_281
*1473 FILLER_0_37_293
*1474 FILLER_0_37_3
*1475 FILLER_0_37_305
*1476 FILLER_0_37_309
*1477 FILLER_0_37_332
*1478 FILLER_0_37_337
*1479 FILLER_0_37_349
*1480 FILLER_0_37_39
*1481 FILLER_0_37_51
*1482 FILLER_0_37_55
*1483 FILLER_0_37_57
*1484 FILLER_0_37_69
*1485 FILLER_0_37_81
*1486 FILLER_0_37_89
*1487 FILLER_0_37_94
*1488 FILLER_0_37_99
*1489 FILLER_0_38_106
*1490 FILLER_0_38_121
*1491 FILLER_0_38_126
*1492 FILLER_0_38_130
*1493 FILLER_0_38_134
*1494 FILLER_0_38_14
*1495 FILLER_0_38_141
*1496 FILLER_0_38_169
*1497 FILLER_0_38_177
*1498 FILLER_0_38_18
*1499 FILLER_0_38_197
*1500 FILLER_0_38_203
*1501 FILLER_0_38_22
*1502 FILLER_0_38_223
*1503 FILLER_0_38_225
*1504 FILLER_0_38_235
*1505 FILLER_0_38_247
*1506 FILLER_0_38_251
*1507 FILLER_0_38_253
*1508 FILLER_0_38_265
*1509 FILLER_0_38_277
*1510 FILLER_0_38_281
*1511 FILLER_0_38_293
*1512 FILLER_0_38_3
*1513 FILLER_0_38_305
*1514 FILLER_0_38_309
*1515 FILLER_0_38_32
*1516 FILLER_0_38_321
*1517 FILLER_0_38_329
*1518 FILLER_0_38_334
*1519 FILLER_0_38_337
*1520 FILLER_0_38_349
*1521 FILLER_0_38_38
*1522 FILLER_0_38_42
*1523 FILLER_0_38_46
*1524 FILLER_0_38_50
*1525 FILLER_0_38_54
*1526 FILLER_0_38_57
*1527 FILLER_0_38_62
*1528 FILLER_0_38_66
*1529 FILLER_0_38_70
*1530 FILLER_0_38_74
*1531 FILLER_0_38_78
*1532 FILLER_0_38_85
*1533 FILLER_0_3_105
*1534 FILLER_0_3_111
*1535 FILLER_0_3_113
*1536 FILLER_0_3_125
*1537 FILLER_0_3_137
*1538 FILLER_0_3_149
*1539 FILLER_0_3_15
*1540 FILLER_0_3_161
*1541 FILLER_0_3_167
*1542 FILLER_0_3_169
*1543 FILLER_0_3_181
*1544 FILLER_0_3_193
*1545 FILLER_0_3_205
*1546 FILLER_0_3_217
*1547 FILLER_0_3_223
*1548 FILLER_0_3_225
*1549 FILLER_0_3_237
*1550 FILLER_0_3_249
*1551 FILLER_0_3_261
*1552 FILLER_0_3_27
*1553 FILLER_0_3_273
*1554 FILLER_0_3_279
*1555 FILLER_0_3_281
*1556 FILLER_0_3_293
*1557 FILLER_0_3_3
*1558 FILLER_0_3_305
*1559 FILLER_0_3_317
*1560 FILLER_0_3_329
*1561 FILLER_0_3_335
*1562 FILLER_0_3_337
*1563 FILLER_0_3_349
*1564 FILLER_0_3_39
*1565 FILLER_0_3_51
*1566 FILLER_0_3_55
*1567 FILLER_0_3_57
*1568 FILLER_0_3_69
*1569 FILLER_0_3_81
*1570 FILLER_0_3_93
*1571 FILLER_0_4_109
*1572 FILLER_0_4_121
*1573 FILLER_0_4_133
*1574 FILLER_0_4_139
*1575 FILLER_0_4_141
*1576 FILLER_0_4_15
*1577 FILLER_0_4_153
*1578 FILLER_0_4_165
*1579 FILLER_0_4_177
*1580 FILLER_0_4_189
*1581 FILLER_0_4_195
*1582 FILLER_0_4_197
*1583 FILLER_0_4_209
*1584 FILLER_0_4_221
*1585 FILLER_0_4_233
*1586 FILLER_0_4_245
*1587 FILLER_0_4_251
*1588 FILLER_0_4_253
*1589 FILLER_0_4_265
*1590 FILLER_0_4_27
*1591 FILLER_0_4_277