*SPEF "ieee 1481-1999"
*DESIGN "tt_um_jayraj4021_SAP1_cpu"
*DATE "11:11:11 Fri 11 11, 1111"
*VENDOR "OpenRCX"
*PROGRAM "Parallel Extraction"
*VERSION "1.0"
*DESIGN_FLOW "NAME_SCOPE LOCAL" "PIN_CAP NONE"
*DIVIDER /
*DELIMITER :
*BUS_DELIMITER []
*T_UNIT 1 NS
*C_UNIT 1 PF
*R_UNIT 1 OHM
*L_UNIT 1 HENRY

*NAME_MAP
*3 clk
*4 ena
*5 rst_n
*6 ui_in[0]
*7 ui_in[1]
*8 ui_in[2]
*9 ui_in[3]
*10 ui_in[4]
*11 ui_in[5]
*12 ui_in[6]
*13 ui_in[7]
*14 uio_in[0]
*15 uio_in[1]
*16 uio_in[2]
*17 uio_in[3]
*18 uio_in[4]
*19 uio_in[5]
*20 uio_in[6]
*21 uio_in[7]
*22 net2
*23 net3
*24 net4
*25 net5
*26 net6
*27 net7
*28 net8
*29 net9
*30 net10
*31 net11
*32 net12
*33 net13
*34 net14
*35 net15
*36 net16
*37 net17
*38 uo_out[0]
*39 uo_out[1]
*40 uo_out[2]
*41 uo_out[3]
*42 uo_out[4]
*43 uo_out[5]
*44 uo_out[6]
*45 uo_out[7]
*46 _000_
*47 _001_
*48 _002_
*49 _003_
*50 _004_
*51 _005_
*52 _006_
*53 _007_
*54 _016_
*55 _017_
*56 _018_
*57 _019_
*58 _020_
*59 _021_
*60 _022_
*61 _023_
*62 _024_
*63 _025_
*64 _026_
*65 _027_
*66 _028_
*67 _029_
*68 _030_
*69 _031_
*70 _032_
*71 _033_
*72 _034_
*73 _035_
*74 _036_
*75 _037_
*76 _038_
*77 _039_
*78 _040_
*79 _041_
*80 _042_
*81 _043_
*82 _044_
*83 _045_
*84 _046_
*85 _047_
*86 _048_
*87 _049_
*88 _050_
*89 _051_
*90 _052_
*91 _053_
*92 _054_
*93 _055_
*94 _056_
*95 _057_
*96 _058_
*97 _059_
*98 _060_
*99 _061_
*100 _062_
*101 _063_
*102 _064_
*103 _065_
*104 _066_
*105 _067_
*106 _068_
*107 _069_
*108 _070_
*109 _071_
*110 _072_
*111 _073_
*112 _074_
*113 _075_
*114 _076_
*115 _077_
*116 _078_
*117 _079_
*118 _080_
*119 _081_
*120 _082_
*121 _083_
*122 _084_
*123 _085_
*124 _086_
*125 _087_
*126 _088_
*127 _089_
*128 _090_
*129 _091_
*130 _092_
*131 _093_
*132 _094_
*133 _095_
*134 _096_
*135 _097_
*136 _098_
*137 _099_
*138 _100_
*139 _101_
*140 _102_
*141 _103_
*142 _104_
*143 _105_
*144 _106_
*145 _107_
*146 _108_
*147 _109_
*148 _110_
*149 _111_
*150 _112_
*151 _113_
*152 _114_
*153 _115_
*154 _116_
*155 _117_
*156 _118_
*157 _119_
*158 _120_
*159 _121_
*160 _122_
*161 _123_
*162 _124_
*163 _125_
*164 _126_
*165 _127_
*166 _128_
*167 _129_
*168 _130_
*169 _131_
*170 _132_
*171 _133_
*172 _134_
*173 _135_
*174 _136_
*175 _137_
*176 _138_
*177 _139_
*178 _140_
*179 _141_
*180 _142_
*181 _143_
*182 _144_
*183 _145_
*184 _146_
*185 _147_
*186 _148_
*187 _149_
*188 _150_
*189 _151_
*190 _152_
*191 _153_
*192 _154_
*193 _155_
*194 _156_
*195 _157_
*196 _158_
*197 _159_
*198 _160_
*199 _161_
*200 _162_
*201 _163_
*202 _164_
*203 _165_
*204 _166_
*205 _167_
*206 _168_
*207 _169_
*208 _170_
*209 _171_
*210 _172_
*211 _173_
*212 _174_
*213 _175_
*214 _176_
*215 _177_
*216 _178_
*217 _179_
*218 _180_
*219 _181_
*220 _182_
*221 _183_
*222 _184_
*223 _185_
*224 _186_
*225 _187_
*226 _188_
*227 _189_
*228 _190_
*229 _191_
*230 _192_
*231 _193_
*232 _194_
*233 _195_
*234 _196_
*235 _197_
*236 _198_
*237 _199_
*238 _200_
*239 _201_
*240 _202_
*241 _203_
*242 _204_
*243 _205_
*244 acc\.inputDataFromMemory\[0\]
*245 acc\.inputDataFromMemory\[1\]
*246 acc\.inputDataFromMemory\[2\]
*247 acc\.inputDataFromMemory\[3\]
*248 acc\.inputDataFromMemory\[4\]
*249 acc\.inputDataFromMemory\[5\]
*250 acc\.inputDataFromMemory\[6\]
*251 acc\.outputDataAcc\[0\]
*252 acc\.outputDataAcc\[1\]
*253 acc\.outputDataAcc\[2\]
*254 acc\.outputDataAcc\[3\]
*255 acc\.outputDataAcc\[4\]
*256 acc\.outputDataAcc\[5\]
*257 acc\.outputDataAcc\[6\]
*258 acc\.outputDataAcc\[7\]
*259 alu\.inputB\[0\]
*260 alu\.inputB\[1\]
*261 alu\.inputB\[2\]
*262 alu\.inputB\[3\]
*263 alu\.inputB\[4\]
*264 alu\.inputB\[5\]
*265 alu\.inputB\[6\]
*266 clknet_0_clk
*267 clknet_2_0__leaf_clk
*268 clknet_2_1__leaf_clk
*269 clknet_2_2__leaf_clk
*270 clknet_2_3__leaf_clk
*271 cu\.Eir
*272 cu\.Epc
*273 cu\.LmPC
*274 cu\.RstPc
*275 cu\.inputInstruction\[0\]
*276 cu\.inputInstruction\[1\]
*277 cu\.inputInstruction\[2\]
*278 cu\.inputInstruction\[3\]
*279 cu\.inputInstruction\[4\]
*280 cu\.inputInstruction\[5\]
*281 cu\.inputInstruction\[6\]
*282 cu\.present\[1\]
*283 cu\.present\[2\]
*284 cu\.present\[3\]
*285 cu\.present\[4\]
*286 mar\.addressFromPC\[0\]
*287 mar\.addressFromPC\[1\]
*288 mar\.addressFromPC\[2\]
*289 mar\.addressFromPC\[3\]
*290 mar\.outputAddress\[0\]
*291 mar\.outputAddress\[1\]
*292 mar\.outputAddress\[2\]
*293 mar\.outputAddress\[3\]
*294 net1
*295 net18
*296 net19
*297 net20
*298 net21
*299 net22
*300 net23
*301 net24
*302 net25
*303 net26
*304 net27
*305 net28
*306 net29
*307 net30
*308 net31
*309 net32
*310 net33
*311 net34
*312 net35
*313 net36
*314 net37
*315 net38
*316 net39
*317 net40
*318 net41
*319 net42
*320 net43
*321 net44
*322 net45
*323 net46
*324 net47
*325 net48
*326 net49
*327 net50
*328 net51
*329 net52
*330 net53
*331 net54
*332 net55
*333 net56
*334 FILLER_0_0_109
*335 FILLER_0_0_113
*336 FILLER_0_0_125
*337 FILLER_0_0_137
*338 FILLER_0_0_141
*339 FILLER_0_0_15
*340 FILLER_0_0_153
*341 FILLER_0_0_165
*342 FILLER_0_0_169
*343 FILLER_0_0_181
*344 FILLER_0_0_193
*345 FILLER_0_0_197
*346 FILLER_0_0_209
*347 FILLER_0_0_221
*348 FILLER_0_0_225
*349 FILLER_0_0_237
*350 FILLER_0_0_249
*351 FILLER_0_0_253
*352 FILLER_0_0_265
*353 FILLER_0_0_27
*354 FILLER_0_0_277
*355 FILLER_0_0_281
*356 FILLER_0_0_29
*357 FILLER_0_0_293
*358 FILLER_0_0_3
*359 FILLER_0_0_305
*360 FILLER_0_0_309
*361 FILLER_0_0_321
*362 FILLER_0_0_333
*363 FILLER_0_0_337
*364 FILLER_0_0_349
*365 FILLER_0_0_41
*366 FILLER_0_0_53
*367 FILLER_0_0_57
*368 FILLER_0_0_69
*369 FILLER_0_0_81
*370 FILLER_0_0_85
*371 FILLER_0_0_97
*372 FILLER_0_10_109
*373 FILLER_0_10_121
*374 FILLER_0_10_133
*375 FILLER_0_10_139
*376 FILLER_0_10_141
*377 FILLER_0_10_15
*378 FILLER_0_10_153
*379 FILLER_0_10_165
*380 FILLER_0_10_177
*381 FILLER_0_10_189
*382 FILLER_0_10_195
*383 FILLER_0_10_197
*384 FILLER_0_10_209
*385 FILLER_0_10_221
*386 FILLER_0_10_233
*387 FILLER_0_10_245
*388 FILLER_0_10_251
*389 FILLER_0_10_253
*390 FILLER_0_10_265
*391 FILLER_0_10_27
*392 FILLER_0_10_277
*393 FILLER_0_10_289
*394 FILLER_0_10_29
*395 FILLER_0_10_3
*396 FILLER_0_10_301
*397 FILLER_0_10_307
*398 FILLER_0_10_309
*399 FILLER_0_10_321
*400 FILLER_0_10_333
*401 FILLER_0_10_345
*402 FILLER_0_10_41
*403 FILLER_0_10_53
*404 FILLER_0_10_65
*405 FILLER_0_10_77
*406 FILLER_0_10_83
*407 FILLER_0_10_85
*408 FILLER_0_10_97
*409 FILLER_0_11_105
*410 FILLER_0_11_111
*411 FILLER_0_11_113
*412 FILLER_0_11_125
*413 FILLER_0_11_137
*414 FILLER_0_11_149
*415 FILLER_0_11_15
*416 FILLER_0_11_161
*417 FILLER_0_11_167
*418 FILLER_0_11_169
*419 FILLER_0_11_181
*420 FILLER_0_11_193
*421 FILLER_0_11_205
*422 FILLER_0_11_217
*423 FILLER_0_11_223
*424 FILLER_0_11_225
*425 FILLER_0_11_237
*426 FILLER_0_11_249
*427 FILLER_0_11_261
*428 FILLER_0_11_27
*429 FILLER_0_11_273
*430 FILLER_0_11_279
*431 FILLER_0_11_281
*432 FILLER_0_11_293
*433 FILLER_0_11_3
*434 FILLER_0_11_305
*435 FILLER_0_11_317
*436 FILLER_0_11_329
*437 FILLER_0_11_335
*438 FILLER_0_11_337
*439 FILLER_0_11_349
*440 FILLER_0_11_39
*441 FILLER_0_11_51
*442 FILLER_0_11_55
*443 FILLER_0_11_57
*444 FILLER_0_11_69
*445 FILLER_0_11_81
*446 FILLER_0_11_93
*447 FILLER_0_12_109
*448 FILLER_0_12_121
*449 FILLER_0_12_133
*450 FILLER_0_12_139
*451 FILLER_0_12_141
*452 FILLER_0_12_15
*453 FILLER_0_12_153
*454 FILLER_0_12_165
*455 FILLER_0_12_177
*456 FILLER_0_12_189
*457 FILLER_0_12_195
*458 FILLER_0_12_197
*459 FILLER_0_12_209
*460 FILLER_0_12_221
*461 FILLER_0_12_233
*462 FILLER_0_12_245
*463 FILLER_0_12_251
*464 FILLER_0_12_253
*465 FILLER_0_12_265
*466 FILLER_0_12_27
*467 FILLER_0_12_277
*468 FILLER_0_12_289
*469 FILLER_0_12_29
*470 FILLER_0_12_3
*471 FILLER_0_12_301
*472 FILLER_0_12_307
*473 FILLER_0_12_309
*474 FILLER_0_12_321
*475 FILLER_0_12_333
*476 FILLER_0_12_345
*477 FILLER_0_12_41
*478 FILLER_0_12_53
*479 FILLER_0_12_65
*480 FILLER_0_12_77
*481 FILLER_0_12_83
*482 FILLER_0_12_85
*483 FILLER_0_12_97
*484 FILLER_0_13_105
*485 FILLER_0_13_111
*486 FILLER_0_13_113
*487 FILLER_0_13_125
*488 FILLER_0_13_137
*489 FILLER_0_13_149
*490 FILLER_0_13_15
*491 FILLER_0_13_161
*492 FILLER_0_13_167
*493 FILLER_0_13_169
*494 FILLER_0_13_181
*495 FILLER_0_13_193
*496 FILLER_0_13_205
*497 FILLER_0_13_217
*498 FILLER_0_13_223
*499 FILLER_0_13_225
*500 FILLER_0_13_237
*501 FILLER_0_13_249
*502 FILLER_0_13_261
*503 FILLER_0_13_27
*504 FILLER_0_13_273
*505 FILLER_0_13_279
*506 FILLER_0_13_281
*507 FILLER_0_13_293
*508 FILLER_0_13_3
*509 FILLER_0_13_305
*510 FILLER_0_13_317
*511 FILLER_0_13_329
*512 FILLER_0_13_335
*513 FILLER_0_13_337
*514 FILLER_0_13_349
*515 FILLER_0_13_39
*516 FILLER_0_13_51
*517 FILLER_0_13_55
*518 FILLER_0_13_57
*519 FILLER_0_13_69
*520 FILLER_0_13_81
*521 FILLER_0_13_93
*522 FILLER_0_14_109
*523 FILLER_0_14_121
*524 FILLER_0_14_133
*525 FILLER_0_14_139
*526 FILLER_0_14_141
*527 FILLER_0_14_15
*528 FILLER_0_14_153
*529 FILLER_0_14_165
*530 FILLER_0_14_177
*531 FILLER_0_14_189
*532 FILLER_0_14_195
*533 FILLER_0_14_197
*534 FILLER_0_14_209
*535 FILLER_0_14_221
*536 FILLER_0_14_233
*537 FILLER_0_14_245
*538 FILLER_0_14_251
*539 FILLER_0_14_253
*540 FILLER_0_14_265
*541 FILLER_0_14_27
*542 FILLER_0_14_277
*543 FILLER_0_14_289
*544 FILLER_0_14_29
*545 FILLER_0_14_3
*546 FILLER_0_14_301
*547 FILLER_0_14_307
*548 FILLER_0_14_309
*549 FILLER_0_14_321
*550 FILLER_0_14_333
*551 FILLER_0_14_345
*552 FILLER_0_14_41
*553 FILLER_0_14_53
*554 FILLER_0_14_65
*555 FILLER_0_14_77
*556 FILLER_0_14_83
*557 FILLER_0_14_85
*558 FILLER_0_14_97
*559 FILLER_0_15_105
*560 FILLER_0_15_111
*561 FILLER_0_15_113
*562 FILLER_0_15_125
*563 FILLER_0_15_137
*564 FILLER_0_15_149
*565 FILLER_0_15_15
*566 FILLER_0_15_161
*567 FILLER_0_15_167
*568 FILLER_0_15_169
*569 FILLER_0_15_181
*570 FILLER_0_15_193
*571 FILLER_0_15_205
*572 FILLER_0_15_217
*573 FILLER_0_15_223
*574 FILLER_0_15_225
*575 FILLER_0_15_237
*576 FILLER_0_15_249
*577 FILLER_0_15_261
*578 FILLER_0_15_27
*579 FILLER_0_15_273
*580 FILLER_0_15_279
*581 FILLER_0_15_281
*582 FILLER_0_15_293
*583 FILLER_0_15_3
*584 FILLER_0_15_305
*585 FILLER_0_15_317
*586 FILLER_0_15_329
*587 FILLER_0_15_335
*588 FILLER_0_15_337
*589 FILLER_0_15_349
*590 FILLER_0_15_39
*591 FILLER_0_15_51
*592 FILLER_0_15_55
*593 FILLER_0_15_57
*594 FILLER_0_15_69
*595 FILLER_0_15_81
*596 FILLER_0_15_93
*597 FILLER_0_16_109
*598 FILLER_0_16_121
*599 FILLER_0_16_133
*600 FILLER_0_16_139
*601 FILLER_0_16_141
*602 FILLER_0_16_15
*603 FILLER_0_16_153
*604 FILLER_0_16_165
*605 FILLER_0_16_177
*606 FILLER_0_16_189
*607 FILLER_0_16_195
*608 FILLER_0_16_197
*609 FILLER_0_16_209
*610 FILLER_0_16_221
*611 FILLER_0_16_233
*612 FILLER_0_16_245
*613 FILLER_0_16_251
*614 FILLER_0_16_253
*615 FILLER_0_16_265
*616 FILLER_0_16_27
*617 FILLER_0_16_277
*618 FILLER_0_16_289
*619 FILLER_0_16_29
*620 FILLER_0_16_3
*621 FILLER_0_16_301
*622 FILLER_0_16_307
*623 FILLER_0_16_309
*624 FILLER_0_16_321
*625 FILLER_0_16_333
*626 FILLER_0_16_345
*627 FILLER_0_16_41
*628 FILLER_0_16_53
*629 FILLER_0_16_65
*630 FILLER_0_16_77
*631 FILLER_0_16_83
*632 FILLER_0_16_85
*633 FILLER_0_16_97
*634 FILLER_0_17_105
*635 FILLER_0_17_111
*636 FILLER_0_17_113
*637 FILLER_0_17_125
*638 FILLER_0_17_137
*639 FILLER_0_17_149
*640 FILLER_0_17_15
*641 FILLER_0_17_161
*642 FILLER_0_17_167
*643 FILLER_0_17_169
*644 FILLER_0_17_181
*645 FILLER_0_17_193
*646 FILLER_0_17_205
*647 FILLER_0_17_217
*648 FILLER_0_17_223
*649 FILLER_0_17_225
*650 FILLER_0_17_237
*651 FILLER_0_17_249
*652 FILLER_0_17_261
*653 FILLER_0_17_27
*654 FILLER_0_17_273
*655 FILLER_0_17_279
*656 FILLER_0_17_281
*657 FILLER_0_17_293
*658 FILLER_0_17_3
*659 FILLER_0_17_305
*660 FILLER_0_17_317
*661 FILLER_0_17_329
*662 FILLER_0_17_335
*663 FILLER_0_17_337
*664 FILLER_0_17_349
*665 FILLER_0_17_39
*666 FILLER_0_17_51
*667 FILLER_0_17_55
*668 FILLER_0_17_57
*669 FILLER_0_17_69
*670 FILLER_0_17_81
*671 FILLER_0_17_93
*672 FILLER_0_18_109
*673 FILLER_0_18_121
*674 FILLER_0_18_133
*675 FILLER_0_18_139
*676 FILLER_0_18_141
*677 FILLER_0_18_15
*678 FILLER_0_18_153
*679 FILLER_0_18_165
*680 FILLER_0_18_177
*681 FILLER_0_18_189
*682 FILLER_0_18_195
*683 FILLER_0_18_197
*684 FILLER_0_18_209
*685 FILLER_0_18_221
*686 FILLER_0_18_233
*687 FILLER_0_18_245
*688 FILLER_0_18_251
*689 FILLER_0_18_253
*690 FILLER_0_18_265
*691 FILLER_0_18_27
*692 FILLER_0_18_277
*693 FILLER_0_18_289
*694 FILLER_0_18_29
*695 FILLER_0_18_3
*696 FILLER_0_18_301
*697 FILLER_0_18_307
*698 FILLER_0_18_309
*699 FILLER_0_18_321
*700 FILLER_0_18_333
*701 FILLER_0_18_345
*702 FILLER_0_18_41
*703 FILLER_0_18_53
*704 FILLER_0_18_65
*705 FILLER_0_18_77
*706 FILLER_0_18_83
*707 FILLER_0_18_85
*708 FILLER_0_18_97
*709 FILLER_0_19_105
*710 FILLER_0_19_111
*711 FILLER_0_19_113
*712 FILLER_0_19_125
*713 FILLER_0_19_137
*714 FILLER_0_19_149
*715 FILLER_0_19_15
*716 FILLER_0_19_161
*717 FILLER_0_19_167
*718 FILLER_0_19_169
*719 FILLER_0_19_181
*720 FILLER_0_19_193
*721 FILLER_0_19_205
*722 FILLER_0_19_217
*723 FILLER_0_19_223
*724 FILLER_0_19_225
*725 FILLER_0_19_237
*726 FILLER_0_19_249
*727 FILLER_0_19_261
*728 FILLER_0_19_27
*729 FILLER_0_19_273
*730 FILLER_0_19_279
*731 FILLER_0_19_281
*732 FILLER_0_19_293
*733 FILLER_0_19_3
*734 FILLER_0_19_305
*735 FILLER_0_19_317
*736 FILLER_0_19_329
*737 FILLER_0_19_335
*738 FILLER_0_19_337
*739 FILLER_0_19_349
*740 FILLER_0_19_39
*741 FILLER_0_19_51
*742 FILLER_0_19_55
*743 FILLER_0_19_57
*744 FILLER_0_19_69
*745 FILLER_0_19_81
*746 FILLER_0_19_93
*747 FILLER_0_1_105
*748 FILLER_0_1_111
*749 FILLER_0_1_113
*750 FILLER_0_1_125
*751 FILLER_0_1_137
*752 FILLER_0_1_149
*753 FILLER_0_1_15
*754 FILLER_0_1_161
*755 FILLER_0_1_167
*756 FILLER_0_1_169
*757 FILLER_0_1_181
*758 FILLER_0_1_193
*759 FILLER_0_1_205
*760 FILLER_0_1_217
*761 FILLER_0_1_223
*762 FILLER_0_1_225
*763 FILLER_0_1_237
*764 FILLER_0_1_249
*765 FILLER_0_1_261
*766 FILLER_0_1_27
*767 FILLER_0_1_273
*768 FILLER_0_1_279
*769 FILLER_0_1_281
*770 FILLER_0_1_293
*771 FILLER_0_1_3
*772 FILLER_0_1_305
*773 FILLER_0_1_317
*774 FILLER_0_1_329
*775 FILLER_0_1_335
*776 FILLER_0_1_337
*777 FILLER_0_1_349
*778 FILLER_0_1_39
*779 FILLER_0_1_51
*780 FILLER_0_1_55
*781 FILLER_0_1_57
*782 FILLER_0_1_69
*783 FILLER_0_1_81
*784 FILLER_0_1_93
*785 FILLER_0_20_109
*786 FILLER_0_20_121
*787 FILLER_0_20_133
*788 FILLER_0_20_139
*789 FILLER_0_20_141
*790 FILLER_0_20_15
*791 FILLER_0_20_153
*792 FILLER_0_20_165
*793 FILLER_0_20_177
*794 FILLER_0_20_189
*795 FILLER_0_20_195
*796 FILLER_0_20_197
*797 FILLER_0_20_209
*798 FILLER_0_20_221
*799 FILLER_0_20_233
*800 FILLER_0_20_245
*801 FILLER_0_20_251
*802 FILLER_0_20_253
*803 FILLER_0_20_265
*804 FILLER_0_20_27
*805 FILLER_0_20_277
*806 FILLER_0_20_289
*807 FILLER_0_20_29
*808 FILLER_0_20_3
*809 FILLER_0_20_301
*810 FILLER_0_20_307
*811 FILLER_0_20_309
*812 FILLER_0_20_321
*813 FILLER_0_20_333
*814 FILLER_0_20_345
*815 FILLER_0_20_41
*816 FILLER_0_20_53
*817 FILLER_0_20_65
*818 FILLER_0_20_77
*819 FILLER_0_20_83
*820 FILLER_0_20_85
*821 FILLER_0_20_97
*822 FILLER_0_21_105
*823 FILLER_0_21_111
*824 FILLER_0_21_113
*825 FILLER_0_21_125
*826 FILLER_0_21_137
*827 FILLER_0_21_149
*828 FILLER_0_21_15
*829 FILLER_0_21_161
*830 FILLER_0_21_167
*831 FILLER_0_21_169
*832 FILLER_0_21_181
*833 FILLER_0_21_193
*834 FILLER_0_21_205
*835 FILLER_0_21_217
*836 FILLER_0_21_223
*837 FILLER_0_21_225
*838 FILLER_0_21_237
*839 FILLER_0_21_249
*840 FILLER_0_21_261
*841 FILLER_0_21_27
*842 FILLER_0_21_273
*843 FILLER_0_21_279
*844 FILLER_0_21_281
*845 FILLER_0_21_293
*846 FILLER_0_21_3
*847 FILLER_0_21_305
*848 FILLER_0_21_317
*849 FILLER_0_21_329
*850 FILLER_0_21_335
*851 FILLER_0_21_337
*852 FILLER_0_21_349
*853 FILLER_0_21_39
*854 FILLER_0_21_51
*855 FILLER_0_21_55
*856 FILLER_0_21_57
*857 FILLER_0_21_69
*858 FILLER_0_21_81
*859 FILLER_0_21_93
*860 FILLER_0_22_109
*861 FILLER_0_22_121
*862 FILLER_0_22_133
*863 FILLER_0_22_139
*864 FILLER_0_22_141
*865 FILLER_0_22_15
*866 FILLER_0_22_153
*867 FILLER_0_22_165
*868 FILLER_0_22_177
*869 FILLER_0_22_189
*870 FILLER_0_22_195
*871 FILLER_0_22_197
*872 FILLER_0_22_209
*873 FILLER_0_22_221
*874 FILLER_0_22_233
*875 FILLER_0_22_245
*876 FILLER_0_22_251
*877 FILLER_0_22_253
*878 FILLER_0_22_265
*879 FILLER_0_22_27
*880 FILLER_0_22_277
*881 FILLER_0_22_289
*882 FILLER_0_22_29
*883 FILLER_0_22_3
*884 FILLER_0_22_301
*885 FILLER_0_22_307
*886 FILLER_0_22_309
*887 FILLER_0_22_321
*888 FILLER_0_22_333
*889 FILLER_0_22_345
*890 FILLER_0_22_41
*891 FILLER_0_22_53
*892 FILLER_0_22_65
*893 FILLER_0_22_77
*894 FILLER_0_22_83
*895 FILLER_0_22_85
*896 FILLER_0_22_97
*897 FILLER_0_23_105
*898 FILLER_0_23_111
*899 FILLER_0_23_113
*900 FILLER_0_23_125
*901 FILLER_0_23_133
*902 FILLER_0_23_15
*903 FILLER_0_23_155
*904 FILLER_0_23_167
*905 FILLER_0_23_169
*906 FILLER_0_23_181
*907 FILLER_0_23_193
*908 FILLER_0_23_205
*909 FILLER_0_23_217
*910 FILLER_0_23_223
*911 FILLER_0_23_225
*912 FILLER_0_23_233
*913 FILLER_0_23_266
*914 FILLER_0_23_27
*915 FILLER_0_23_278
*916 FILLER_0_23_281
*917 FILLER_0_23_293
*918 FILLER_0_23_3
*919 FILLER_0_23_305
*920 FILLER_0_23_317
*921 FILLER_0_23_329
*922 FILLER_0_23_335
*923 FILLER_0_23_337
*924 FILLER_0_23_349
*925 FILLER_0_23_39
*926 FILLER_0_23_51
*927 FILLER_0_23_55
*928 FILLER_0_23_57
*929 FILLER_0_23_69
*930 FILLER_0_23_81
*931 FILLER_0_23_93
*932 FILLER_0_24_109
*933 FILLER_0_24_121
*934 FILLER_0_24_133
*935 FILLER_0_24_139
*936 FILLER_0_24_141
*937 FILLER_0_24_15
*938 FILLER_0_24_163
*939 FILLER_0_24_175
*940 FILLER_0_24_187
*941 FILLER_0_24_195
*942 FILLER_0_24_197
*943 FILLER_0_24_221
*944 FILLER_0_24_229
*945 FILLER_0_24_251
*946 FILLER_0_24_27
*947 FILLER_0_24_276
*948 FILLER_0_24_288
*949 FILLER_0_24_29
*950 FILLER_0_24_3
*951 FILLER_0_24_300
*952 FILLER_0_24_309
*953 FILLER_0_24_321
*954 FILLER_0_24_333
*955 FILLER_0_24_345
*956 FILLER_0_24_41
*957 FILLER_0_24_53
*958 FILLER_0_24_65
*959 FILLER_0_24_77
*960 FILLER_0_24_83
*961 FILLER_0_24_85
*962 FILLER_0_24_97
*963 FILLER_0_25_105
*964 FILLER_0_25_111
*965 FILLER_0_25_113
*966 FILLER_0_25_122
*967 FILLER_0_25_134
*968 FILLER_0_25_146
*969 FILLER_0_25_15
*970 FILLER_0_25_166
*971 FILLER_0_25_169
*972 FILLER_0_25_181
*973 FILLER_0_25_187
*974 FILLER_0_25_191
*975 FILLER_0_25_234
*976 FILLER_0_25_241
*977 FILLER_0_25_27
*978 FILLER_0_25_286
*979 FILLER_0_25_292
*980 FILLER_0_25_3
*981 FILLER_0_25_326
*982 FILLER_0_25_334
*983 FILLER_0_25_337
*984 FILLER_0_25_349
*985 FILLER_0_25_39
*986 FILLER_0_25_51
*987 FILLER_0_25_55
*988 FILLER_0_25_57
*989 FILLER_0_25_69
*990 FILLER_0_25_81
*991 FILLER_0_25_93
*992 FILLER_0_26_109
*993 FILLER_0_26_113
*994 FILLER_0_26_139
*995 FILLER_0_26_15
*996 FILLER_0_26_167
*997 FILLER_0_26_179
*998 FILLER_0_26_209
*999 FILLER_0_26_214
*1000 FILLER_0_26_225
*1001 FILLER_0_26_237
*1002 FILLER_0_26_245
*1003 FILLER_0_26_27
*1004 FILLER_0_26_29
*1005 FILLER_0_26_291
*1006 FILLER_0_26_3
*1007 FILLER_0_26_305
*1008 FILLER_0_26_318
*1009 FILLER_0_26_345
*1010 FILLER_0_26_41
*1011 FILLER_0_26_53
*1012 FILLER_0_26_65
*1013 FILLER_0_26_77
*1014 FILLER_0_26_83
*1015 FILLER_0_26_85
*1016 FILLER_0_26_93
*1017 FILLER_0_26_98
*1018 FILLER_0_27_105
*1019 FILLER_0_27_111
*1020 FILLER_0_27_128
*1021 FILLER_0_27_140
*1022 FILLER_0_27_15
*1023 FILLER_0_27_164
*1024 FILLER_0_27_175
*1025 FILLER_0_27_195
*1026 FILLER_0_27_207
*1027 FILLER_0_27_211
*1028 FILLER_0_27_250
*1029 FILLER_0_27_27
*1030 FILLER_0_27_281
*1031 FILLER_0_27_289
*1032 FILLER_0_27_3
*1033 FILLER_0_27_301
*1034 FILLER_0_27_307
*1035 FILLER_0_27_325
*1036 FILLER_0_27_334
*1037 FILLER_0_27_348
*1038 FILLER_0_27_39
*1039 FILLER_0_27_51
*1040 FILLER_0_27_55
*1041 FILLER_0_27_57
*1042 FILLER_0_27_69
*1043 FILLER_0_27_81
*1044 FILLER_0_28_108
*1045 FILLER_0_28_120
*1046 FILLER_0_28_132
*1047 FILLER_0_28_141
*1048 FILLER_0_28_15
*1049 FILLER_0_28_170
*1050 FILLER_0_28_182
*1051 FILLER_0_28_194
*1052 FILLER_0_28_197
*1053 FILLER_0_28_205
*1054 FILLER_0_28_248
*1055 FILLER_0_28_27
*1056 FILLER_0_28_289
*1057 FILLER_0_28_29
*1058 FILLER_0_28_293
*1059 FILLER_0_28_3
*1060 FILLER_0_28_306
*1061 FILLER_0_28_309
*1062 FILLER_0_28_343
*1063 FILLER_0_28_41
*1064 FILLER_0_28_53
*1065 FILLER_0_28_65
*1066 FILLER_0_28_77
*1067 FILLER_0_29_104
*1068 FILLER_0_29_113
*1069 FILLER_0_29_125
*1070 FILLER_0_29_137
*1071 FILLER_0_29_15
*1072 FILLER_0_29_164
*1073 FILLER_0_29_169
*1074 FILLER_0_29_181
*1075 FILLER_0_29_193
*1076 FILLER_0_29_201
*1077 FILLER_0_29_216
*1078 FILLER_0_29_233
*1079 FILLER_0_29_237
*1080 FILLER_0_29_246
*1081 FILLER_0_29_266
*1082 FILLER_0_29_27
*1083 FILLER_0_29_279
*1084 FILLER_0_29_289
*1085 FILLER_0_29_3
*1086 FILLER_0_29_304
*1087 FILLER_0_29_308
*1088 FILLER_0_29_318
*1089 FILLER_0_29_335
*1090 FILLER_0_29_348
*1091 FILLER_0_29_39
*1092 FILLER_0_29_51
*1093 FILLER_0_29_55
*1094 FILLER_0_29_57
*1095 FILLER_0_29_69
*1096 FILLER_0_29_81
*1097 FILLER_0_2_109
*1098 FILLER_0_2_121
*1099 FILLER_0_2_133
*1100 FILLER_0_2_139
*1101 FILLER_0_2_141
*1102 FILLER_0_2_15
*1103 FILLER_0_2_153
*1104 FILLER_0_2_165
*1105 FILLER_0_2_177
*1106 FILLER_0_2_189
*1107 FILLER_0_2_195
*1108 FILLER_0_2_197
*1109 FILLER_0_2_209
*1110 FILLER_0_2_221
*1111 FILLER_0_2_233
*1112 FILLER_0_2_245
*1113 FILLER_0_2_251
*1114 FILLER_0_2_253
*1115 FILLER_0_2_265
*1116 FILLER_0_2_27
*1117 FILLER_0_2_277
*1118 FILLER_0_2_289
*1119 FILLER_0_2_29
*1120 FILLER_0_2_3
*1121 FILLER_0_2_301
*1122 FILLER_0_2_307
*1123 FILLER_0_2_309
*1124 FILLER_0_2_321
*1125 FILLER_0_2_333
*1126 FILLER_0_2_345
*1127 FILLER_0_2_41
*1128 FILLER_0_2_53
*1129 FILLER_0_2_65
*1130 FILLER_0_2_77
*1131 FILLER_0_2_83
*1132 FILLER_0_2_85
*1133 FILLER_0_2_97
*1134 FILLER_0_30_109
*1135 FILLER_0_30_121
*1136 FILLER_0_30_127
*1137 FILLER_0_30_139
*1138 FILLER_0_30_141
*1139 FILLER_0_30_15
*1140 FILLER_0_30_172
*1141 FILLER_0_30_184
*1142 FILLER_0_30_188
*1143 FILLER_0_30_197
*1144 FILLER_0_30_210
*1145 FILLER_0_30_218
*1146 FILLER_0_30_226
*1147 FILLER_0_30_236
*1148 FILLER_0_30_248
*1149 FILLER_0_30_27
*1150 FILLER_0_30_270
*1151 FILLER_0_30_29
*1152 FILLER_0_30_3
*1153 FILLER_0_30_303
*1154 FILLER_0_30_307
*1155 FILLER_0_30_309
*1156 FILLER_0_30_317
*1157 FILLER_0_30_342
*1158 FILLER_0_30_350
*1159 FILLER_0_30_41
*1160 FILLER_0_30_53
*1161 FILLER_0_30_65
*1162 FILLER_0_30_77
*1163 FILLER_0_30_97
*1164 FILLER_0_31_124
*1165 FILLER_0_31_134
*1166 FILLER_0_31_140
*1167 FILLER_0_31_149
*1168 FILLER_0_31_15
*1169 FILLER_0_31_165
*1170 FILLER_0_31_177
*1171 FILLER_0_31_202
*1172 FILLER_0_31_225
*1173 FILLER_0_31_237
*1174 FILLER_0_31_246
*1175 FILLER_0_31_258
*1176 FILLER_0_31_265
*1177 FILLER_0_31_27
*1178 FILLER_0_31_284
*1179 FILLER_0_31_297
*1180 FILLER_0_31_3
*1181 FILLER_0_31_307
*1182 FILLER_0_31_315
*1183 FILLER_0_31_39
*1184 FILLER_0_31_51
*1185 FILLER_0_31_55
*1186 FILLER_0_31_57
*1187 FILLER_0_31_69
*1188 FILLER_0_32_126
*1189 FILLER_0_32_133
*1190 FILLER_0_32_15
*1191 FILLER_0_32_175
*1192 FILLER_0_32_179
*1193 FILLER_0_32_215
*1194 FILLER_0_32_27
*1195 FILLER_0_32_29
*1196 FILLER_0_32_296
*1197 FILLER_0_32_3
*1198 FILLER_0_32_309
*1199 FILLER_0_32_326
*1200 FILLER_0_32_336
*1201 FILLER_0_32_348
*1202 FILLER_0_32_41
*1203 FILLER_0_32_53
*1204 FILLER_0_32_65
*1205 FILLER_0_33_120
*1206 FILLER_0_33_128
*1207 FILLER_0_33_15
*1208 FILLER_0_33_177
*1209 FILLER_0_33_201
*1210 FILLER_0_33_209
*1211 FILLER_0_33_260
*1212 FILLER_0_33_268
*1213 FILLER_0_33_27
*1214 FILLER_0_33_276
*1215 FILLER_0_33_281
*1216 FILLER_0_33_287
*1217 FILLER_0_33_296
*1218 FILLER_0_33_3
*1219 FILLER_0_33_304
*1220 FILLER_0_33_335
*1221 FILLER_0_33_337
*1222 FILLER_0_33_349
*1223 FILLER_0_33_39
*1224 FILLER_0_33_51
*1225 FILLER_0_33_55
*1226 FILLER_0_33_57
*1227 FILLER_0_33_69
*1228 FILLER_0_34_102
*1229 FILLER_0_34_111
*1230 FILLER_0_34_119
*1231 FILLER_0_34_129
*1232 FILLER_0_34_137
*1233 FILLER_0_34_141
*1234 FILLER_0_34_15
*1235 FILLER_0_34_170
*1236 FILLER_0_34_182
*1237 FILLER_0_34_186
*1238 FILLER_0_34_193
*1239 FILLER_0_34_200
*1240 FILLER_0_34_212
*1241 FILLER_0_34_229
*1242 FILLER_0_34_246
*1243 FILLER_0_34_261
*1244 FILLER_0_34_267
*1245 FILLER_0_34_27
*1246 FILLER_0_34_285
*1247 FILLER_0_34_29
*1248 FILLER_0_34_291
*1249 FILLER_0_34_3
*1250 FILLER_0_34_323
*1251 FILLER_0_34_342
*1252 FILLER_0_34_350
*1253 FILLER_0_34_41
*1254 FILLER_0_34_53
*1255 FILLER_0_34_65
*1256 FILLER_0_34_77
*1257 FILLER_0_34_83
*1258 FILLER_0_35_103
*1259 FILLER_0_35_111
*1260 FILLER_0_35_129
*1261 FILLER_0_35_15
*1262 FILLER_0_35_154
*1263 FILLER_0_35_166
*1264 FILLER_0_35_178
*1265 FILLER_0_35_216
*1266 FILLER_0_35_223
*1267 FILLER_0_35_247
*1268 FILLER_0_35_259
*1269 FILLER_0_35_263
*1270 FILLER_0_35_27
*1271 FILLER_0_35_292
*1272 FILLER_0_35_3
*1273 FILLER_0_35_307
*1274 FILLER_0_35_315
*1275 FILLER_0_35_333
*1276 FILLER_0_35_337
*1277 FILLER_0_35_349
*1278 FILLER_0_35_39
*1279 FILLER_0_35_51
*1280 FILLER_0_35_55
*1281 FILLER_0_35_57
*1282 FILLER_0_35_69
*1283 FILLER_0_35_81
*1284 FILLER_0_35_93
*1285 FILLER_0_36_118
*1286 FILLER_0_36_137
*1287 FILLER_0_36_15
*1288 FILLER_0_36_176
*1289 FILLER_0_36_184
*1290 FILLER_0_36_214
*1291 FILLER_0_36_226
*1292 FILLER_0_36_238
*1293 FILLER_0_36_250
*1294 FILLER_0_36_253
*1295 FILLER_0_36_27
*1296 FILLER_0_36_29
*1297 FILLER_0_36_299
*1298 FILLER_0_36_3
*1299 FILLER_0_36_307
*1300 FILLER_0_36_309
*1301 FILLER_0_36_317
*1302 FILLER_0_36_321
*1303 FILLER_0_36_325
*1304 FILLER_0_36_337
*1305 FILLER_0_36_349
*1306 FILLER_0_36_41
*1307 FILLER_0_36_53
*1308 FILLER_0_36_65
*1309 FILLER_0_36_77
*1310 FILLER_0_36_83
*1311 FILLER_0_36_85
*1312 FILLER_0_36_89
*1313 FILLER_0_37_111
*1314 FILLER_0_37_113
*1315 FILLER_0_37_15
*1316 FILLER_0_37_152
*1317 FILLER_0_37_156
*1318 FILLER_0_37_172
*1319 FILLER_0_37_180
*1320 FILLER_0_37_218
*1321 FILLER_0_37_225
*1322 FILLER_0_37_237
*1323 FILLER_0_37_249
*1324 FILLER_0_37_261
*1325 FILLER_0_37_27
*1326 FILLER_0_37_289
*1327 FILLER_0_37_3
*1328 FILLER_0_37_301
*1329 FILLER_0_37_313
*1330 FILLER_0_37_325
*1331 FILLER_0_37_333
*1332 FILLER_0_37_337
*1333 FILLER_0_37_349
*1334 FILLER_0_37_39
*1335 FILLER_0_37_51
*1336 FILLER_0_37_55
*1337 FILLER_0_37_57
*1338 FILLER_0_37_69
*1339 FILLER_0_37_81
*1340 FILLER_0_38_102
*1341 FILLER_0_38_106
*1342 FILLER_0_38_110
*1343 FILLER_0_38_113
*1344 FILLER_0_38_118
*1345 FILLER_0_38_126
*1346 FILLER_0_38_130
*1347 FILLER_0_38_134
*1348 FILLER_0_38_14
*1349 FILLER_0_38_144
*1350 FILLER_0_38_167
*1351 FILLER_0_38_169
*1352 FILLER_0_38_18
*1353 FILLER_0_38_181
*1354 FILLER_0_38_185
*1355 FILLER_0_38_189
*1356 FILLER_0_38_195
*1357 FILLER_0_38_197
*1358 FILLER_0_38_209
*1359 FILLER_0_38_22
*1360 FILLER_0_38_221
*1361 FILLER_0_38_225
*1362 FILLER_0_38_237
*1363 FILLER_0_38_249
*1364 FILLER_0_38_253
*1365 FILLER_0_38_268
*1366 FILLER_0_38_277
*1367 FILLER_0_38_281
*1368 FILLER_0_38_293
*1369 FILLER_0_38_3
*1370 FILLER_0_38_305
*1371 FILLER_0_38_309
*1372 FILLER_0_38_32
*1373 FILLER_0_38_321
*1374 FILLER_0_38_329
*1375 FILLER_0_38_335
*1376 FILLER_0_38_337
*1377 FILLER_0_38_349
*1378 FILLER_0_38_38
*1379 FILLER_0_38_42
*1380 FILLER_0_38_46
*1381 FILLER_0_38_50
*1382 FILLER_0_38_54
*1383 FILLER_0_38_57
*1384 FILLER_0_38_62
*1385 FILLER_0_38_66
*1386 FILLER_0_38_70
*1387 FILLER_0_38_74
*1388 FILLER_0_38_78
*1389 FILLER_0_38_88
*1390 FILLER_0_38_98
*1391 FILLER_0_3_105
*1392 FILLER_0_3_111
*1393 FILLER_0_3_113
*1394 FILLER_0_3_125
*1395 FILLER_0_3_137
*1396 FILLER_0_3_149
*1397 FILLER_0_3_15
*1398 FILLER_0_3_161
*1399 FILLER_0_3_167
*1400 FILLER_0_3_169
*1401 FILLER_0_3_181
*1402 FILLER_0_3_193
*1403 FILLER_0_3_205
*1404 FILLER_0_3_217
*1405 FILLER_0_3_223
*1406 FILLER_0_3_225
*1407 FILLER_0_3_237
*1408 FILLER_0_3_249
*1409 FILLER_0_3_261
*1410 FILLER_0_3_27
*1411 FILLER_0_3_273
*1412 FILLER_0_3_279
*1413 FILLER_0_3_281
*1414 FILLER_0_3_293
*1415 FILLER_0_3_3
*1416 FILLER_0_3_305
*1417 FILLER_0_3_317
*1418 FILLER_0_3_329
*1419 FILLER_0_3_335
*1420 FILLER_0_3_337
*1421 FILLER_0_3_349
*1422 FILLER_0_3_39
*1423 FILLER_0_3_51
*1424 FILLER_0_3_55
*1425 FILLER_0_3_57
*1426 FILLER_0_3_69
*1427 FILLER_0_3_81
*1428 FILLER_0_3_93
*1429 FILLER_0_4_109
*1430 FILLER_0_4_121
*1431 FILLER_0_4_133
*1432 FILLER_0_4_139
*1433 FILLER_0_4_141
*1434 FILLER_0_4_15
*1435 FILLER_0_4_153
*1436 FILLER_0_4_165
*1437 FILLER_0_4_177
*1438 FILLER_0_4_189
*1439 FILLER_0_4_195
*1440 FILLER_0_4_197
*1441 FILLER_0_4_209
*1442 FILLER_0_4_221
*1443 FILLER_0_4_233
*1444 FILLER_0_4_245
*1445 FILLER_0_4_251
*1446 FILLER_0_4_253
*1447 FILLER_0_4_265
*1448 FILLER_0_4_27
*1449 FILLER_0_4_277
*1450 FILLER_0_4_289
*1451 FILLER_0_4_29
*1452 FILLER_0_4_3
*1453 FILLER_0_4_301
*1454 FILLER_0_4_307
*1455 FILLER_0_4_309
*1456 FILLER_0_4_321
*1457 FILLER_0_4_333
*1458 FILLER_0_4_345
*1459 FILLER_0_4_41
*1460 FILLER_0_4_53
*1461 FILLER_0_4_65
*1462 FILLER_0_4_77
*1463 FILLER_0_4_83
*1464 FILLER_0_4_85
*1465 FILLER_0_4_97
*1466 FILLER_0_5_105
*1467 FILLER_0_5_111
*1468 FILLER_0_5_113
*1469 FILLER_0_5_125
*1470 FILLER_0_5_137
*1471 FILLER_0_5_149
*1472 FILLER_0_5_15
*1473 FILLER_0_5_161
*1474 FILLER_0_5_167
*1475 FILLER_0_5_169
*1476 FILLER_0_5_181
*1477 FILLER_0_5_193
*1478 FILLER_0_5_205
*1479 FILLER_0_5_217
*1480 FILLER_0_5_223
*1481 FILLER_0_5_225
*1482 FILLER_0_5_237
*1483 FILLER_0_5_249
*1484 FILLER_0_5_261
*1485 FILLER_0_5_27
*1486 FILLER_0_5_273
*1487 FILLER_0_5_279
*1488 FILLER_0_5_281
*1489 FILLER_0_5_293
*1490 FILLER_0_5_3
*1491 FILLER_0_5_305
*1492 FILLER_0_5_317
*1493 FILLER_0_5_329
*1494 FILLER_0_5_335
*1495 FILLER_0_5_337
*1496 FILLER_0_5_349
*1497 FILLER_0_5_39
*1498 FILLER_0_5_51
*1499 FILLER_0_5_55
*1500 FILLER_0_5_57
*1501 FILLER_0_5_69
*1502 FILLER_0_5_81
*1503 FILLER_0_5_93
*1504 FILLER_0_6_109
*1505 FILLER_0_6_121
*1506 FILLER_0_6_133
*1507 FILLER_0_6_139
*1508 FILLER_0_6_141
*1509 FILLER_0_6_15
*1510 FILLER_0_6_153
*1511 FILLER_0_6_165
*1512 FILLER_0_6_177
*1513 FILLER_0_6_189
*1514 FILLER_0_6_195
*1515 FILLER_0_6_197
*1516 FILLER_0_6_209
*1517 FILLER_0_6_221
*1518 FILLER_0_6_233
*1519 FILLER_0_6_245
*1520 FILLER_0_6_251
*1521 FILLER_0_6_253
*1522 FILLER_0_6_265
*1523 FILLER_0_6_27
*1524 FILLER_0_6_277
*1525 FILLER_0_6_289
*1526 FILLER_0_6_29
*1527 FILLER_0_6_3
*1528 FILLER_0_6_301
*1529 FILLER_0_6_307
*1530 FILLER_0_6_309
*1531 FILLER_0_6_321
*1532 FILLER_0_6_333
*1533 FILLER_0_6_345
*1534 FILLER_0_6_41
*1535 FILLER_0_6_53
*1536 FILLER_0_6_65
*1537 FILLER_0_6_77
*1538 FILLER_0_6_83
*1539 FILLER_0_6_85
*1540 FILLER_0_6_97
*1541 FILLER_0_7_105
*1542 FILLER_0_7_111