*SPEF "ieee 1481-1999"
*DESIGN "tt_um_RELOG_10M_Juan_Garcial"
*DATE "11:11:11 Fri 11 11, 1111"
*VENDOR "OpenRCX"
*PROGRAM "Parallel Extraction"
*VERSION "1.0"
*DESIGN_FLOW "NAME_SCOPE LOCAL" "PIN_CAP NONE"
*DIVIDER /
*DELIMITER :
*BUS_DELIMITER []
*T_UNIT 1 NS
*C_UNIT 1 PF
*R_UNIT 1 OHM
*L_UNIT 1 HENRY

*NAME_MAP
*3 clk
*4 ena
*5 rst_n
*6 ui_in[0]
*7 ui_in[1]
*8 ui_in[2]
*9 ui_in[3]
*10 ui_in[4]
*11 ui_in[5]
*12 ui_in[6]
*13 ui_in[7]
*14 uio_in[0]
*15 uio_in[1]
*16 uio_in[2]
*17 uio_in[3]
*18 uio_in[4]
*19 uio_in[5]
*20 uio_in[6]
*21 uio_in[7]
*22 net14
*23 net15
*24 net16
*25 net17
*26 net18
*27 net19
*28 net20
*29 net21
*30 net22
*31 net23
*32 net24
*33 net25
*34 net26
*35 net27
*36 net28
*37 net29
*38 uo_out[0]
*39 uo_out[1]
*40 uo_out[2]
*41 uo_out[3]
*42 uo_out[4]
*43 uo_out[5]
*44 uo_out[6]
*45 uo_out[7]
*46 D1\.ampm
*47 D1\.hrs\[0\]
*48 D1\.hrs\[1\]
*49 D1\.hrs\[2\]
*50 D1\.hrs\[3\]
*51 D1\.hrs\[4\]
*52 _000_
*53 _001_
*54 _002_
*55 _003_
*56 _004_
*57 _005_
*58 _006_
*59 _007_
*60 _008_
*61 _009_
*62 _010_
*63 _011_
*64 _012_
*65 _013_
*66 _014_
*67 _015_
*68 _016_
*69 _017_
*70 _018_
*71 _019_
*72 _020_
*73 _021_
*74 _022_
*75 _023_
*76 _024_
*77 _025_
*78 _026_
*79 _027_
*80 _028_
*81 _029_
*82 _030_
*83 _031_
*84 _032_
*85 _033_
*86 _034_
*87 _035_
*88 _036_
*89 _037_
*90 _038_
*91 _039_
*92 _040_
*93 _041_
*94 _042_
*95 _043_
*96 _044_
*97 _045_
*98 _046_
*99 _047_
*100 _048_
*101 _049_
*102 _050_
*103 _051_
*104 _052_
*105 _053_
*106 _054_
*107 _055_
*108 _056_
*109 _057_
*110 _058_
*111 _059_
*112 _060_
*113 _061_
*114 _062_
*115 _063_
*116 _064_
*117 _065_
*118 _066_
*119 _067_
*120 _068_
*121 _069_
*122 _070_
*123 _071_
*124 _072_
*125 _073_
*126 _074_
*127 _075_
*128 _076_
*129 _077_
*130 _078_
*131 _079_
*132 _080_
*133 _081_
*134 _082_
*135 _083_
*136 _084_
*137 _085_
*138 _086_
*139 _087_
*140 _088_
*141 _089_
*142 _090_
*143 _091_
*144 _092_
*145 _093_
*146 _094_
*147 _095_
*148 _096_
*149 _097_
*150 _098_
*151 _099_
*152 _100_
*153 _101_
*154 _102_
*155 _103_
*156 _104_
*157 _105_
*158 _106_
*159 _107_
*160 _108_
*161 _109_
*162 _110_
*163 _111_
*164 _112_
*165 _113_
*166 _114_
*167 _115_
*168 _116_
*169 _117_
*170 _118_
*171 _119_
*172 _120_
*173 _121_
*174 _122_
*175 _123_
*176 _124_
*177 _125_
*178 _126_
*179 _127_
*180 _128_
*181 _129_
*182 _130_
*183 _131_
*184 _132_
*185 _133_
*186 _134_
*187 _135_
*188 _136_
*189 _137_
*190 _138_
*191 _139_
*192 _140_
*193 _141_
*194 _142_
*195 _143_
*196 _144_
*197 _145_
*198 _146_
*199 _147_
*200 _148_
*201 _149_
*202 _150_
*203 _151_
*204 _152_
*205 _153_
*206 _154_
*207 _155_
*208 _156_
*209 _157_
*210 _158_
*211 _159_
*212 _160_
*213 _161_
*214 _162_
*215 _163_
*216 _164_
*217 _165_
*218 _166_
*219 _167_
*220 _168_
*221 _169_
*222 _170_
*223 _171_
*224 _172_
*225 _173_
*226 _174_
*227 _175_
*228 _176_
*229 _177_
*230 _178_
*231 _179_
*232 _180_
*233 _181_
*234 _182_
*235 _183_
*236 _184_
*237 _185_
*238 _186_
*239 _187_
*240 _188_
*241 _189_
*242 _190_
*243 _191_
*244 _192_
*245 _193_
*246 _194_
*247 _195_
*248 _196_
*249 _197_
*250 _198_
*251 _199_
*252 _200_
*253 _201_
*254 _202_
*255 _203_
*256 _204_
*257 _205_
*258 _206_
*259 _207_
*260 _208_
*261 _209_
*262 _210_
*263 _211_
*264 _212_
*265 _213_
*266 _214_
*267 _215_
*268 _216_
*269 _217_
*270 _218_
*271 _219_
*272 _220_
*273 _221_
*274 _222_
*275 _223_
*276 _224_
*277 _225_
*278 _226_
*279 _227_
*280 _228_
*281 _229_
*282 _230_
*283 _231_
*284 _232_
*285 _233_
*286 _234_
*287 _235_
*288 _236_
*289 _237_
*290 _238_
*291 _239_
*292 _240_
*293 _241_
*294 _242_
*295 _243_
*296 _244_
*297 _245_
*298 _246_
*299 _247_
*300 _248_
*301 _249_
*302 _250_
*303 _251_
*304 _252_
*305 _253_
*306 _254_
*307 _255_
*308 _256_
*309 _257_
*310 _258_
*311 _259_
*312 _260_
*313 _261_
*314 _262_
*315 _263_
*316 _264_
*317 _265_
*318 _266_
*319 _267_
*320 _268_
*321 _269_
*322 _270_
*323 _271_
*324 _272_
*325 _273_
*326 _274_
*327 _275_
*328 _276_
*329 _277_
*330 _278_
*331 _279_
*332 clk_1s
*333 clk_500u
*334 clk_reloj
*335 clknet_0_clk
*336 clknet_1_0__leaf_clk
*337 clknet_1_1__leaf_clk
*338 count_a\[0\]
*339 count_a\[10\]
*340 count_a\[11\]
*341 count_a\[12\]
*342 count_a\[1\]
*343 count_a\[2\]
*344 count_a\[3\]
*345 count_a\[4\]
*346 count_a\[5\]
*347 count_a\[6\]
*348 count_a\[7\]
*349 count_a\[8\]
*350 count_a\[9\]
*351 count_b\[0\]
*352 count_b\[10\]
*353 count_b\[1\]
*354 count_b\[2\]
*355 count_b\[3\]
*356 count_b\[4\]
*357 count_b\[5\]
*358 count_b\[6\]
*359 count_b\[7\]
*360 count_b\[8\]
*361 count_b\[9\]
*362 d_min_r\[0\]
*363 d_min_r\[1\]
*364 d_min_r\[2\]
*365 d_min_r\[3\]
*366 d_seg_r\[0\]
*367 d_seg_r\[1\]
*368 d_seg_r\[2\]
*369 d_seg_r\[3\]
*370 mode\[0\]
*371 mode\[1\]
*372 net1
*373 net10
*374 net11
*375 net12
*376 net13
*377 net2
*378 net3
*379 net30
*380 net31
*381 net32
*382 net33
*383 net34
*384 net35
*385 net36
*386 net37
*387 net38
*388 net39
*389 net4
*390 net40
*391 net41
*392 net42
*393 net43
*394 net44
*395 net5
*396 net6
*397 net7
*398 net8
*399 net9
*400 segments_
*401 u_min_r\[0\]
*402 u_min_r\[1\]
*403 u_min_r\[2\]
*404 u_min_r\[3\]
*405 u_seg_r\[0\]
*406 u_seg_r\[1\]
*407 u_seg_r\[2\]
*408 u_seg_r\[3\]
*409 FILLER_0_0_109
*410 FILLER_0_0_113
*411 FILLER_0_0_125
*412 FILLER_0_0_137
*413 FILLER_0_0_141
*414 FILLER_0_0_15
*415 FILLER_0_0_153
*416 FILLER_0_0_165
*417 FILLER_0_0_169
*418 FILLER_0_0_181
*419 FILLER_0_0_193
*420 FILLER_0_0_197
*421 FILLER_0_0_209
*422 FILLER_0_0_221
*423 FILLER_0_0_225
*424 FILLER_0_0_237
*425 FILLER_0_0_249
*426 FILLER_0_0_253
*427 FILLER_0_0_265
*428 FILLER_0_0_27
*429 FILLER_0_0_277
*430 FILLER_0_0_281
*431 FILLER_0_0_29
*432 FILLER_0_0_293
*433 FILLER_0_0_3
*434 FILLER_0_0_305
*435 FILLER_0_0_309
*436 FILLER_0_0_321
*437 FILLER_0_0_333
*438 FILLER_0_0_337
*439 FILLER_0_0_349
*440 FILLER_0_0_41
*441 FILLER_0_0_53
*442 FILLER_0_0_57
*443 FILLER_0_0_69
*444 FILLER_0_0_81
*445 FILLER_0_0_85
*446 FILLER_0_0_97
*447 FILLER_0_10_109
*448 FILLER_0_10_121
*449 FILLER_0_10_133
*450 FILLER_0_10_139
*451 FILLER_0_10_141
*452 FILLER_0_10_15
*453 FILLER_0_10_153
*454 FILLER_0_10_165
*455 FILLER_0_10_177
*456 FILLER_0_10_189
*457 FILLER_0_10_195
*458 FILLER_0_10_197
*459 FILLER_0_10_209
*460 FILLER_0_10_221
*461 FILLER_0_10_233
*462 FILLER_0_10_245
*463 FILLER_0_10_251
*464 FILLER_0_10_253
*465 FILLER_0_10_265
*466 FILLER_0_10_27
*467 FILLER_0_10_277
*468 FILLER_0_10_289
*469 FILLER_0_10_29
*470 FILLER_0_10_3
*471 FILLER_0_10_301
*472 FILLER_0_10_307
*473 FILLER_0_10_309
*474 FILLER_0_10_321
*475 FILLER_0_10_333
*476 FILLER_0_10_345
*477 FILLER_0_10_41
*478 FILLER_0_10_53
*479 FILLER_0_10_65
*480 FILLER_0_10_77
*481 FILLER_0_10_83
*482 FILLER_0_10_85
*483 FILLER_0_10_97
*484 FILLER_0_11_105
*485 FILLER_0_11_111
*486 FILLER_0_11_113
*487 FILLER_0_11_125
*488 FILLER_0_11_137
*489 FILLER_0_11_149
*490 FILLER_0_11_15
*491 FILLER_0_11_161
*492 FILLER_0_11_167
*493 FILLER_0_11_169
*494 FILLER_0_11_181
*495 FILLER_0_11_193
*496 FILLER_0_11_205
*497 FILLER_0_11_217
*498 FILLER_0_11_223
*499 FILLER_0_11_225
*500 FILLER_0_11_237
*501 FILLER_0_11_249
*502 FILLER_0_11_261
*503 FILLER_0_11_27
*504 FILLER_0_11_273
*505 FILLER_0_11_279
*506 FILLER_0_11_281
*507 FILLER_0_11_293
*508 FILLER_0_11_3
*509 FILLER_0_11_305
*510 FILLER_0_11_317
*511 FILLER_0_11_329
*512 FILLER_0_11_335
*513 FILLER_0_11_337
*514 FILLER_0_11_349
*515 FILLER_0_11_39
*516 FILLER_0_11_51
*517 FILLER_0_11_55
*518 FILLER_0_11_57
*519 FILLER_0_11_69
*520 FILLER_0_11_81
*521 FILLER_0_11_93
*522 FILLER_0_12_109
*523 FILLER_0_12_121
*524 FILLER_0_12_133
*525 FILLER_0_12_139
*526 FILLER_0_12_141
*527 FILLER_0_12_15
*528 FILLER_0_12_153
*529 FILLER_0_12_165
*530 FILLER_0_12_177
*531 FILLER_0_12_189
*532 FILLER_0_12_195
*533 FILLER_0_12_197
*534 FILLER_0_12_209
*535 FILLER_0_12_221
*536 FILLER_0_12_233
*537 FILLER_0_12_245
*538 FILLER_0_12_251
*539 FILLER_0_12_253
*540 FILLER_0_12_265
*541 FILLER_0_12_27
*542 FILLER_0_12_277
*543 FILLER_0_12_289
*544 FILLER_0_12_29
*545 FILLER_0_12_3
*546 FILLER_0_12_301
*547 FILLER_0_12_307
*548 FILLER_0_12_309
*549 FILLER_0_12_321
*550 FILLER_0_12_333
*551 FILLER_0_12_345
*552 FILLER_0_12_41
*553 FILLER_0_12_53
*554 FILLER_0_12_65
*555 FILLER_0_12_77
*556 FILLER_0_12_83
*557 FILLER_0_12_85
*558 FILLER_0_12_97
*559 FILLER_0_13_105
*560 FILLER_0_13_111
*561 FILLER_0_13_113
*562 FILLER_0_13_125
*563 FILLER_0_13_137
*564 FILLER_0_13_149
*565 FILLER_0_13_15
*566 FILLER_0_13_161
*567 FILLER_0_13_167
*568 FILLER_0_13_169
*569 FILLER_0_13_181
*570 FILLER_0_13_193
*571 FILLER_0_13_205
*572 FILLER_0_13_217
*573 FILLER_0_13_223
*574 FILLER_0_13_225
*575 FILLER_0_13_237
*576 FILLER_0_13_249
*577 FILLER_0_13_261
*578 FILLER_0_13_27
*579 FILLER_0_13_273
*580 FILLER_0_13_279
*581 FILLER_0_13_281
*582 FILLER_0_13_293
*583 FILLER_0_13_3
*584 FILLER_0_13_305
*585 FILLER_0_13_317
*586 FILLER_0_13_329
*587 FILLER_0_13_335
*588 FILLER_0_13_337
*589 FILLER_0_13_349
*590 FILLER_0_13_39
*591 FILLER_0_13_51
*592 FILLER_0_13_55
*593 FILLER_0_13_57
*594 FILLER_0_13_69
*595 FILLER_0_13_81
*596 FILLER_0_13_93
*597 FILLER_0_14_109
*598 FILLER_0_14_121
*599 FILLER_0_14_133
*600 FILLER_0_14_139
*601 FILLER_0_14_141
*602 FILLER_0_14_15
*603 FILLER_0_14_153
*604 FILLER_0_14_165
*605 FILLER_0_14_177
*606 FILLER_0_14_189
*607 FILLER_0_14_195
*608 FILLER_0_14_197
*609 FILLER_0_14_209
*610 FILLER_0_14_221
*611 FILLER_0_14_233
*612 FILLER_0_14_245
*613 FILLER_0_14_251
*614 FILLER_0_14_253
*615 FILLER_0_14_265
*616 FILLER_0_14_27
*617 FILLER_0_14_277
*618 FILLER_0_14_289
*619 FILLER_0_14_29
*620 FILLER_0_14_3
*621 FILLER_0_14_301
*622 FILLER_0_14_307
*623 FILLER_0_14_309
*624 FILLER_0_14_321
*625 FILLER_0_14_333
*626 FILLER_0_14_345
*627 FILLER_0_14_41
*628 FILLER_0_14_53
*629 FILLER_0_14_65
*630 FILLER_0_14_77
*631 FILLER_0_14_83
*632 FILLER_0_14_85
*633 FILLER_0_14_97
*634 FILLER_0_15_105
*635 FILLER_0_15_111
*636 FILLER_0_15_113
*637 FILLER_0_15_125
*638 FILLER_0_15_137
*639 FILLER_0_15_149
*640 FILLER_0_15_15
*641 FILLER_0_15_161
*642 FILLER_0_15_167
*643 FILLER_0_15_169
*644 FILLER_0_15_181
*645 FILLER_0_15_193
*646 FILLER_0_15_205
*647 FILLER_0_15_217
*648 FILLER_0_15_223
*649 FILLER_0_15_225
*650 FILLER_0_15_237
*651 FILLER_0_15_249
*652 FILLER_0_15_261
*653 FILLER_0_15_27
*654 FILLER_0_15_273
*655 FILLER_0_15_279
*656 FILLER_0_15_281
*657 FILLER_0_15_292
*658 FILLER_0_15_3
*659 FILLER_0_15_304
*660 FILLER_0_15_316
*661 FILLER_0_15_320
*662 FILLER_0_15_326
*663 FILLER_0_15_334
*664 FILLER_0_15_337
*665 FILLER_0_15_349
*666 FILLER_0_15_39
*667 FILLER_0_15_51
*668 FILLER_0_15_55
*669 FILLER_0_15_57
*670 FILLER_0_15_69
*671 FILLER_0_15_81
*672 FILLER_0_15_93
*673 FILLER_0_16_109
*674 FILLER_0_16_121
*675 FILLER_0_16_133
*676 FILLER_0_16_139
*677 FILLER_0_16_141
*678 FILLER_0_16_15
*679 FILLER_0_16_153
*680 FILLER_0_16_165
*681 FILLER_0_16_177
*682 FILLER_0_16_189
*683 FILLER_0_16_195
*684 FILLER_0_16_197
*685 FILLER_0_16_209
*686 FILLER_0_16_221
*687 FILLER_0_16_233
*688 FILLER_0_16_245
*689 FILLER_0_16_251
*690 FILLER_0_16_253
*691 FILLER_0_16_265
*692 FILLER_0_16_27
*693 FILLER_0_16_29
*694 FILLER_0_16_3
*695 FILLER_0_16_306
*696 FILLER_0_16_316
*697 FILLER_0_16_336
*698 FILLER_0_16_345
*699 FILLER_0_16_41
*700 FILLER_0_16_53
*701 FILLER_0_16_65
*702 FILLER_0_16_77
*703 FILLER_0_16_83
*704 FILLER_0_16_85
*705 FILLER_0_16_97
*706 FILLER_0_17_105
*707 FILLER_0_17_111
*708 FILLER_0_17_113
*709 FILLER_0_17_125
*710 FILLER_0_17_137
*711 FILLER_0_17_149
*712 FILLER_0_17_15
*713 FILLER_0_17_161
*714 FILLER_0_17_167
*715 FILLER_0_17_169
*716 FILLER_0_17_181
*717 FILLER_0_17_193
*718 FILLER_0_17_205
*719 FILLER_0_17_217
*720 FILLER_0_17_223
*721 FILLER_0_17_225
*722 FILLER_0_17_237
*723 FILLER_0_17_249
*724 FILLER_0_17_261
*725 FILLER_0_17_27
*726 FILLER_0_17_281
*727 FILLER_0_17_3
*728 FILLER_0_17_302
*729 FILLER_0_17_335
*730 FILLER_0_17_337
*731 FILLER_0_17_39
*732 FILLER_0_17_51
*733 FILLER_0_17_55
*734 FILLER_0_17_57
*735 FILLER_0_17_69
*736 FILLER_0_17_81
*737 FILLER_0_17_93
*738 FILLER_0_18_109
*739 FILLER_0_18_121
*740 FILLER_0_18_133
*741 FILLER_0_18_139
*742 FILLER_0_18_141
*743 FILLER_0_18_15
*744 FILLER_0_18_153
*745 FILLER_0_18_165
*746 FILLER_0_18_177
*747 FILLER_0_18_189
*748 FILLER_0_18_195
*749 FILLER_0_18_197
*750 FILLER_0_18_209
*751 FILLER_0_18_221
*752 FILLER_0_18_233
*753 FILLER_0_18_245
*754 FILLER_0_18_251
*755 FILLER_0_18_27
*756 FILLER_0_18_276
*757 FILLER_0_18_281
*758 FILLER_0_18_29
*759 FILLER_0_18_3
*760 FILLER_0_18_302
*761 FILLER_0_18_345
*762 FILLER_0_18_41
*763 FILLER_0_18_53
*764 FILLER_0_18_65
*765 FILLER_0_18_77
*766 FILLER_0_18_83
*767 FILLER_0_18_85
*768 FILLER_0_18_97
*769 FILLER_0_19_105
*770 FILLER_0_19_111
*771 FILLER_0_19_113
*772 FILLER_0_19_125
*773 FILLER_0_19_137
*774 FILLER_0_19_149
*775 FILLER_0_19_15
*776 FILLER_0_19_161
*777 FILLER_0_19_167
*778 FILLER_0_19_169
*779 FILLER_0_19_181
*780 FILLER_0_19_193
*781 FILLER_0_19_205
*782 FILLER_0_19_217
*783 FILLER_0_19_223
*784 FILLER_0_19_225
*785 FILLER_0_19_237
*786 FILLER_0_19_249
*787 FILLER_0_19_261
*788 FILLER_0_19_27
*789 FILLER_0_19_273
*790 FILLER_0_19_284
*791 FILLER_0_19_3
*792 FILLER_0_19_305
*793 FILLER_0_19_309
*794 FILLER_0_19_334
*795 FILLER_0_19_344
*796 FILLER_0_19_350
*797 FILLER_0_19_39
*798 FILLER_0_19_51
*799 FILLER_0_19_55
*800 FILLER_0_19_57
*801 FILLER_0_19_69
*802 FILLER_0_19_81
*803 FILLER_0_19_93
*804 FILLER_0_1_105
*805 FILLER_0_1_111
*806 FILLER_0_1_113
*807 FILLER_0_1_125
*808 FILLER_0_1_137
*809 FILLER_0_1_149
*810 FILLER_0_1_15
*811 FILLER_0_1_161
*812 FILLER_0_1_167
*813 FILLER_0_1_169
*814 FILLER_0_1_181
*815 FILLER_0_1_193
*816 FILLER_0_1_205
*817 FILLER_0_1_217
*818 FILLER_0_1_223
*819 FILLER_0_1_225
*820 FILLER_0_1_237
*821 FILLER_0_1_249
*822 FILLER_0_1_261
*823 FILLER_0_1_27
*824 FILLER_0_1_273
*825 FILLER_0_1_279
*826 FILLER_0_1_281
*827 FILLER_0_1_293
*828 FILLER_0_1_3
*829 FILLER_0_1_305
*830 FILLER_0_1_317
*831 FILLER_0_1_329
*832 FILLER_0_1_335
*833 FILLER_0_1_337
*834 FILLER_0_1_349
*835 FILLER_0_1_39
*836 FILLER_0_1_51
*837 FILLER_0_1_55
*838 FILLER_0_1_57
*839 FILLER_0_1_69
*840 FILLER_0_1_81
*841 FILLER_0_1_93
*842 FILLER_0_20_109
*843 FILLER_0_20_121
*844 FILLER_0_20_133
*845 FILLER_0_20_139
*846 FILLER_0_20_141
*847 FILLER_0_20_15
*848 FILLER_0_20_153
*849 FILLER_0_20_165
*850 FILLER_0_20_177
*851 FILLER_0_20_189
*852 FILLER_0_20_195
*853 FILLER_0_20_197
*854 FILLER_0_20_209
*855 FILLER_0_20_221
*856 FILLER_0_20_233
*857 FILLER_0_20_259
*858 FILLER_0_20_268
*859 FILLER_0_20_27
*860 FILLER_0_20_29
*861 FILLER_0_20_295
*862 FILLER_0_20_3
*863 FILLER_0_20_307
*864 FILLER_0_20_322
*865 FILLER_0_20_340
*866 FILLER_0_20_349
*867 FILLER_0_20_41
*868 FILLER_0_20_53
*869 FILLER_0_20_65
*870 FILLER_0_20_77
*871 FILLER_0_20_83
*872 FILLER_0_20_85
*873 FILLER_0_20_97
*874 FILLER_0_21_109
*875 FILLER_0_21_113
*876 FILLER_0_21_125
*877 FILLER_0_21_137
*878 FILLER_0_21_149
*879 FILLER_0_21_15
*880 FILLER_0_21_161
*881 FILLER_0_21_167
*882 FILLER_0_21_169
*883 FILLER_0_21_181
*884 FILLER_0_21_203
*885 FILLER_0_21_215
*886 FILLER_0_21_223
*887 FILLER_0_21_225
*888 FILLER_0_21_237
*889 FILLER_0_21_241
*890 FILLER_0_21_27
*891 FILLER_0_21_274
*892 FILLER_0_21_3
*893 FILLER_0_21_309
*894 FILLER_0_21_350
*895 FILLER_0_21_39
*896 FILLER_0_21_51
*897 FILLER_0_21_55
*898 FILLER_0_21_57
*899 FILLER_0_21_69
*900 FILLER_0_21_81
*901 FILLER_0_21_93
*902 FILLER_0_22_119
*903 FILLER_0_22_131
*904 FILLER_0_22_139
*905 FILLER_0_22_141
*906 FILLER_0_22_15
*907 FILLER_0_22_153
*908 FILLER_0_22_165
*909 FILLER_0_22_177
*910 FILLER_0_22_189
*911 FILLER_0_22_195
*912 FILLER_0_22_197
*913 FILLER_0_22_209
*914 FILLER_0_22_221
*915 FILLER_0_22_233
*916 FILLER_0_22_261
*917 FILLER_0_22_27
*918 FILLER_0_22_271
*919 FILLER_0_22_275
*920 FILLER_0_22_29
*921 FILLER_0_22_3
*922 FILLER_0_22_306
*923 FILLER_0_22_313
*924 FILLER_0_22_317
*925 FILLER_0_22_334
*926 FILLER_0_22_338
*927 FILLER_0_22_41
*928 FILLER_0_22_53
*929 FILLER_0_22_65
*930 FILLER_0_22_77
*931 FILLER_0_22_83
*932 FILLER_0_22_85
*933 FILLER_0_22_97
*934 FILLER_0_23_129
*935 FILLER_0_23_137
*936 FILLER_0_23_143
*937 FILLER_0_23_15
*938 FILLER_0_23_155
*939 FILLER_0_23_167
*940 FILLER_0_23_169
*941 FILLER_0_23_181
*942 FILLER_0_23_205
*943 FILLER_0_23_219
*944 FILLER_0_23_223
*945 FILLER_0_23_225
*946 FILLER_0_23_229
*947 FILLER_0_23_250
*948 FILLER_0_23_262
*949 FILLER_0_23_27
*950 FILLER_0_23_274
*951 FILLER_0_23_3
*952 FILLER_0_23_302
*953 FILLER_0_23_314
*954 FILLER_0_23_320
*955 FILLER_0_23_325
*956 FILLER_0_23_329
*957 FILLER_0_23_335
*958 FILLER_0_23_337
*959 FILLER_0_23_349
*960 FILLER_0_23_39
*961 FILLER_0_23_51
*962 FILLER_0_23_55
*963 FILLER_0_23_57
*964 FILLER_0_23_69
*965 FILLER_0_23_81
*966 FILLER_0_23_93
*967 FILLER_0_24_127
*968 FILLER_0_24_138
*969 FILLER_0_24_15
*970 FILLER_0_24_178
*971 FILLER_0_24_197
*972 FILLER_0_24_230
*973 FILLER_0_24_235
*974 FILLER_0_24_247
*975 FILLER_0_24_251
*976 FILLER_0_24_253
*977 FILLER_0_24_265
*978 FILLER_0_24_269
*979 FILLER_0_24_27
*980 FILLER_0_24_29
*981 FILLER_0_24_294
*982 FILLER_0_24_3
*983 FILLER_0_24_306
*984 FILLER_0_24_309
*985 FILLER_0_24_321
*986 FILLER_0_24_346
*987 FILLER_0_24_350
*988 FILLER_0_24_41
*989 FILLER_0_24_53
*990 FILLER_0_24_65
*991 FILLER_0_24_77
*992 FILLER_0_24_83
*993 FILLER_0_24_85
*994 FILLER_0_24_97
*995 FILLER_0_25_120
*996 FILLER_0_25_15
*997 FILLER_0_25_157
*998 FILLER_0_25_164
*999 FILLER_0_25_169
*1000 FILLER_0_25_181
*1001 FILLER_0_25_193
*1002 FILLER_0_25_197
*1003 FILLER_0_25_207
*1004 FILLER_0_25_222
*1005 FILLER_0_25_235
*1006 FILLER_0_25_257
*1007 FILLER_0_25_265
*1008 FILLER_0_25_27
*1009 FILLER_0_25_273
*1010 FILLER_0_25_3
*1011 FILLER_0_25_304
*1012 FILLER_0_25_312
*1013 FILLER_0_25_340
*1014 FILLER_0_25_348
*1015 FILLER_0_25_39
*1016 FILLER_0_25_51
*1017 FILLER_0_25_55
*1018 FILLER_0_25_57
*1019 FILLER_0_25_69
*1020 FILLER_0_25_81
*1021 FILLER_0_25_93
*1022 FILLER_0_26_103
*1023 FILLER_0_26_114
*1024 FILLER_0_26_123
*1025 FILLER_0_26_135
*1026 FILLER_0_26_139
*1027 FILLER_0_26_148
*1028 FILLER_0_26_15
*1029 FILLER_0_26_177
*1030 FILLER_0_26_189
*1031 FILLER_0_26_195
*1032 FILLER_0_26_197
*1033 FILLER_0_26_203
*1034 FILLER_0_26_207
*1035 FILLER_0_26_214
*1036 FILLER_0_26_228
*1037 FILLER_0_26_240
*1038 FILLER_0_26_249
*1039 FILLER_0_26_253
*1040 FILLER_0_26_268
*1041 FILLER_0_26_27
*1042 FILLER_0_26_29
*1043 FILLER_0_26_298
*1044 FILLER_0_26_3
*1045 FILLER_0_26_306
*1046 FILLER_0_26_309
*1047 FILLER_0_26_341
*1048 FILLER_0_26_349
*1049 FILLER_0_26_41
*1050 FILLER_0_26_53
*1051 FILLER_0_26_65
*1052 FILLER_0_26_77
*1053 FILLER_0_26_83
*1054 FILLER_0_26_85
*1055 FILLER_0_26_97
*1056 FILLER_0_27_134
*1057 FILLER_0_27_140
*1058 FILLER_0_27_15
*1059 FILLER_0_27_152
*1060 FILLER_0_27_164
*1061 FILLER_0_27_185
*1062 FILLER_0_27_196
*1063 FILLER_0_27_208
*1064 FILLER_0_27_212
*1065 FILLER_0_27_218
*1066 FILLER_0_27_230
*1067 FILLER_0_27_242
*1068 FILLER_0_27_254
*1069 FILLER_0_27_262
*1070 FILLER_0_27_27
*1071 FILLER_0_27_276
*1072 FILLER_0_27_294
*1073 FILLER_0_27_3
*1074 FILLER_0_27_306
*1075 FILLER_0_27_310
*1076 FILLER_0_27_337
*1077 FILLER_0_27_349
*1078 FILLER_0_27_39
*1079 FILLER_0_27_51
*1080 FILLER_0_27_55
*1081 FILLER_0_27_57
*1082 FILLER_0_27_69
*1083 FILLER_0_27_81
*1084 FILLER_0_27_93
*1085 FILLER_0_28_122
*1086 FILLER_0_28_128
*1087 FILLER_0_28_132
*1088 FILLER_0_28_141
*1089 FILLER_0_28_15
*1090 FILLER_0_28_153
*1091 FILLER_0_28_165
*1092 FILLER_0_28_174
*1093 FILLER_0_28_217
*1094 FILLER_0_28_232
*1095 FILLER_0_28_241
*1096 FILLER_0_28_249
*1097 FILLER_0_28_253
*1098 FILLER_0_28_257
*1099 FILLER_0_28_27
*1100 FILLER_0_28_272
*1101 FILLER_0_28_285
*1102 FILLER_0_28_29
*1103 FILLER_0_28_291
*1104 FILLER_0_28_299
*1105 FILLER_0_28_3
*1106 FILLER_0_28_309
*1107 FILLER_0_28_317
*1108 FILLER_0_28_326
*1109 FILLER_0_28_338
*1110 FILLER_0_28_350
*1111 FILLER_0_28_41
*1112 FILLER_0_28_53
*1113 FILLER_0_28_65
*1114 FILLER_0_28_77
*1115 FILLER_0_28_83
*1116 FILLER_0_28_85
*1117 FILLER_0_28_97
*1118 FILLER_0_29_105
*1119 FILLER_0_29_120
*1120 FILLER_0_29_132
*1121 FILLER_0_29_144
*1122 FILLER_0_29_15
*1123 FILLER_0_29_159
*1124 FILLER_0_29_167
*1125 FILLER_0_29_169
*1126 FILLER_0_29_181
*1127 FILLER_0_29_189
*1128 FILLER_0_29_194
*1129 FILLER_0_29_202
*1130 FILLER_0_29_214
*1131 FILLER_0_29_222
*1132 FILLER_0_29_232
*1133 FILLER_0_29_241
*1134 FILLER_0_29_245
*1135 FILLER_0_29_254
*1136 FILLER_0_29_262
*1137 FILLER_0_29_27
*1138 FILLER_0_29_274
*1139 FILLER_0_29_3
*1140 FILLER_0_29_306
*1141 FILLER_0_29_314
*1142 FILLER_0_29_342
*1143 FILLER_0_29_350
*1144 FILLER_0_29_39
*1145 FILLER_0_29_51
*1146 FILLER_0_29_55
*1147 FILLER_0_29_57
*1148 FILLER_0_29_69
*1149 FILLER_0_29_81
*1150 FILLER_0_29_93
*1151 FILLER_0_2_109
*1152 FILLER_0_2_121
*1153 FILLER_0_2_133
*1154 FILLER_0_2_139
*1155 FILLER_0_2_141
*1156 FILLER_0_2_15
*1157 FILLER_0_2_153
*1158 FILLER_0_2_165
*1159 FILLER_0_2_177
*1160 FILLER_0_2_189
*1161 FILLER_0_2_195
*1162 FILLER_0_2_197
*1163 FILLER_0_2_209
*1164 FILLER_0_2_221
*1165 FILLER_0_2_233
*1166 FILLER_0_2_245
*1167 FILLER_0_2_251
*1168 FILLER_0_2_253
*1169 FILLER_0_2_265
*1170 FILLER_0_2_27
*1171 FILLER_0_2_277
*1172 FILLER_0_2_289
*1173 FILLER_0_2_29
*1174 FILLER_0_2_3
*1175 FILLER_0_2_301
*1176 FILLER_0_2_307
*1177 FILLER_0_2_309
*1178 FILLER_0_2_321
*1179 FILLER_0_2_333
*1180 FILLER_0_2_345
*1181 FILLER_0_2_41
*1182 FILLER_0_2_53
*1183 FILLER_0_2_65
*1184 FILLER_0_2_77
*1185 FILLER_0_2_83
*1186 FILLER_0_2_85
*1187 FILLER_0_2_97
*1188 FILLER_0_30_123
*1189 FILLER_0_30_135
*1190 FILLER_0_30_139
*1191 FILLER_0_30_15
*1192 FILLER_0_30_157
*1193 FILLER_0_30_181
*1194 FILLER_0_30_185
*1195 FILLER_0_30_204
*1196 FILLER_0_30_220
*1197 FILLER_0_30_228
*1198 FILLER_0_30_249
*1199 FILLER_0_30_27
*1200 FILLER_0_30_278
*1201 FILLER_0_30_29
*1202 FILLER_0_30_3
*1203 FILLER_0_30_306
*1204 FILLER_0_30_312
*1205 FILLER_0_30_344
*1206 FILLER_0_30_350
*1207 FILLER_0_30_41
*1208 FILLER_0_30_53
*1209 FILLER_0_30_65
*1210 FILLER_0_30_77
*1211 FILLER_0_30_83
*1212 FILLER_0_30_85
*1213 FILLER_0_31_134
*1214 FILLER_0_31_15
*1215 FILLER_0_31_187
*1216 FILLER_0_31_210
*1217 FILLER_0_31_222
*1218 FILLER_0_31_225
*1219 FILLER_0_31_229
*1220 FILLER_0_31_236
*1221 FILLER_0_31_244
*1222 FILLER_0_31_258
*1223 FILLER_0_31_27
*1224 FILLER_0_31_270
*1225 FILLER_0_31_278
*1226 FILLER_0_31_3
*1227 FILLER_0_31_304
*1228 FILLER_0_31_337
*1229 FILLER_0_31_349
*1230 FILLER_0_31_39
*1231 FILLER_0_31_51
*1232 FILLER_0_31_55
*1233 FILLER_0_31_57
*1234 FILLER_0_31_69
*1235 FILLER_0_31_81
*1236 FILLER_0_31_93
*1237 FILLER_0_32_126
*1238 FILLER_0_32_138
*1239 FILLER_0_32_141
*1240 FILLER_0_32_15
*1241 FILLER_0_32_183
*1242 FILLER_0_32_195
*1243 FILLER_0_32_197
*1244 FILLER_0_32_209
*1245 FILLER_0_32_221
*1246 FILLER_0_32_229
*1247 FILLER_0_32_235
*1248 FILLER_0_32_243
*1249 FILLER_0_32_251
*1250 FILLER_0_32_253
*1251 FILLER_0_32_260
*1252 FILLER_0_32_27
*1253 FILLER_0_32_272
*1254 FILLER_0_32_280
*1255 FILLER_0_32_286
*1256 FILLER_0_32_29
*1257 FILLER_0_32_298
*1258 FILLER_0_32_3
*1259 FILLER_0_32_306
*1260 FILLER_0_32_309
*1261 FILLER_0_32_348
*1262 FILLER_0_32_41
*1263 FILLER_0_32_53
*1264 FILLER_0_32_65
*1265 FILLER_0_32_77
*1266 FILLER_0_32_83
*1267 FILLER_0_32_85
*1268 FILLER_0_32_93
*1269 FILLER_0_33_105
*1270 FILLER_0_33_111
*1271 FILLER_0_33_116
*1272 FILLER_0_33_128
*1273 FILLER_0_33_140
*1274 FILLER_0_33_15
*1275 FILLER_0_33_152
*1276 FILLER_0_33_165
*1277 FILLER_0_33_169
*1278 FILLER_0_33_181
*1279 FILLER_0_33_193
*1280 FILLER_0_33_201
*1281 FILLER_0_33_210
*1282 FILLER_0_33_217
*1283 FILLER_0_33_223
*1284 FILLER_0_33_225
*1285 FILLER_0_33_229
*1286 FILLER_0_33_249
*1287 FILLER_0_33_257
*1288 FILLER_0_33_263
*1289 FILLER_0_33_27
*1290 FILLER_0_33_270
*1291 FILLER_0_33_276
*1292 FILLER_0_33_281
*1293 FILLER_0_33_293
*1294 FILLER_0_33_3
*1295 FILLER_0_33_305
*1296 FILLER_0_33_311
*1297 FILLER_0_33_323
*1298 FILLER_0_33_334
*1299 FILLER_0_33_337
*1300 FILLER_0_33_349
*1301 FILLER_0_33_39
*1302 FILLER_0_33_51
*1303 FILLER_0_33_55
*1304 FILLER_0_33_57
*1305 FILLER_0_33_69
*1306 FILLER_0_33_81
*1307 FILLER_0_33_93
*1308 FILLER_0_34_109
*1309 FILLER_0_34_121
*1310 FILLER_0_34_133
*1311 FILLER_0_34_139
*1312 FILLER_0_34_141
*1313 FILLER_0_34_15
*1314 FILLER_0_34_153
*1315 FILLER_0_34_165
*1316 FILLER_0_34_177
*1317 FILLER_0_34_189
*1318 FILLER_0_34_195
*1319 FILLER_0_34_197
*1320 FILLER_0_34_221
*1321 FILLER_0_34_233
*1322 FILLER_0_34_241
*1323 FILLER_0_34_248
*1324 FILLER_0_34_267
*1325 FILLER_0_34_27
*1326 FILLER_0_34_283
*1327 FILLER_0_34_288
*1328 FILLER_0_34_29
*1329 FILLER_0_34_292
*1330 FILLER_0_34_3
*1331 FILLER_0_34_304
*1332 FILLER_0_34_309
*1333 FILLER_0_34_318
*1334 FILLER_0_34_348
*1335 FILLER_0_34_41
*1336 FILLER_0_34_53
*1337 FILLER_0_34_65
*1338 FILLER_0_34_77
*1339 FILLER_0_34_83
*1340 FILLER_0_34_85
*1341 FILLER_0_34_97
*1342 FILLER_0_35_105
*1343 FILLER_0_35_111
*1344 FILLER_0_35_113
*1345 FILLER_0_35_141
*1346 FILLER_0_35_15
*1347 FILLER_0_35_153
*1348 FILLER_0_35_186
*1349 FILLER_0_35_215
*1350 FILLER_0_35_228
*1351 FILLER_0_35_240
*1352 FILLER_0_35_259
*1353 FILLER_0_35_27
*1354 FILLER_0_35_270
*1355 FILLER_0_35_278
*1356 FILLER_0_35_3
*1357 FILLER_0_35_300
*1358 FILLER_0_35_308
*1359 FILLER_0_35_316
*1360 FILLER_0_35_333
*1361 FILLER_0_35_337
*1362 FILLER_0_35_349
*1363 FILLER_0_35_39
*1364 FILLER_0_35_51
*1365 FILLER_0_35_55
*1366 FILLER_0_35_57
*1367 FILLER_0_35_69
*1368 FILLER_0_35_81
*1369 FILLER_0_35_93
*1370 FILLER_0_36_109
*1371 FILLER_0_36_139
*1372 FILLER_0_36_148
*1373 FILLER_0_36_15
*1374 FILLER_0_36_186
*1375 FILLER_0_36_192
*1376 FILLER_0_36_202
*1377 FILLER_0_36_234
*1378 FILLER_0_36_246
*1379 FILLER_0_36_258
*1380 FILLER_0_36_27
*1381 FILLER_0_36_274
*1382 FILLER_0_36_29
*1383 FILLER_0_36_293
*1384 FILLER_0_36_3
*1385 FILLER_0_36_301
*1386 FILLER_0_36_326
*1387 FILLER_0_36_350
*1388 FILLER_0_36_41
*1389 FILLER_0_36_53
*1390 FILLER_0_36_65
*1391 FILLER_0_36_77
*1392 FILLER_0_36_83
*1393 FILLER_0_36_85
*1394 FILLER_0_36_97
*1395 FILLER_0_37_105
*1396 FILLER_0_37_111
*1397 FILLER_0_37_113
*1398 FILLER_0_37_149
*1399 FILLER_0_37_15
*1400 FILLER_0_37_169
*1401 FILLER_0_37_180
*1402 FILLER_0_37_184
*1403 FILLER_0_37_189
*1404 FILLER_0_37_195
*1405 FILLER_0_37_222
*1406 FILLER_0_37_225
*1407 FILLER_0_37_237
*1408 FILLER_0_37_244
*1409 FILLER_0_37_259
*1410 FILLER_0_37_27
*1411 FILLER_0_37_277
*1412 FILLER_0_37_281
*1413 FILLER_0_37_289
*1414 FILLER_0_37_298
*1415 FILLER_0_37_3
*1416 FILLER_0_37_331
*1417 FILLER_0_37_335
*1418 FILLER_0_37_337
*1419 FILLER_0_37_350
*1420 FILLER_0_37_39
*1421 FILLER_0_37_51
*1422 FILLER_0_37_55
*1423 FILLER_0_37_57
*1424 FILLER_0_37_69
*1425 FILLER_0_37_81
*1426 FILLER_0_37_93
*1427 FILLER_0_38_102
*1428 FILLER_0_38_106
*1429 FILLER_0_38_110
*1430 FILLER_0_38_113
*1431 FILLER_0_38_118
*1432 FILLER_0_38_139
*1433 FILLER_0_38_14
*1434 FILLER_0_38_141
*1435 FILLER_0_38_153
*1436 FILLER_0_38_176
*1437 FILLER_0_38_18
*1438 FILLER_0_38_188
*1439 FILLER_0_38_197
*1440 FILLER_0_38_203
*1441 FILLER_0_38_215
*1442 FILLER_0_38_22
*1443 FILLER_0_38_223
*1444 FILLER_0_38_225
*1445 FILLER_0_38_237
*1446 FILLER_0_38_249
*1447 FILLER_0_38_253
*1448 FILLER_0_38_272
*1449 FILLER_0_38_281
*1450 FILLER_0_38_293
*1451 FILLER_0_38_3
*1452 FILLER_0_38_302
*1453 FILLER_0_38_313
*1454 FILLER_0_38_319
*1455 FILLER_0_38_32
*1456 FILLER_0_38_327
*1457 FILLER_0_38_334
*1458 FILLER_0_38_337
*1459 FILLER_0_38_341
*1460 FILLER_0_38_346
*1461 FILLER_0_38_350
*1462 FILLER_0_38_38
*1463 FILLER_0_38_42
*1464 FILLER_0_38_46
*1465 FILLER_0_38_50
*1466 FILLER_0_38_54
*1467 FILLER_0_38_57
*1468 FILLER_0_38_62
*1469 FILLER_0_38_66
*1470 FILLER_0_38_70
*1471 FILLER_0_38_74
*1472 FILLER_0_38_78
*1473 FILLER_0_38_88
*1474 FILLER_0_38_94
*1475 FILLER_0_38_98
*1476 FILLER_0_3_105
*1477 FILLER_0_3_111
*1478 FILLER_0_3_113
*1479 FILLER_0_3_125
*1480 FILLER_0_3_137
*1481 FILLER_0_3_149
*1482 FILLER_0_3_15
*1483 FILLER_0_3_161
*1484 FILLER_0_3_167
*1485 FILLER_0_3_169
*1486 FILLER_0_3_181
*1487 FILLER_0_3_193
*1488 FILLER_0_3_205
*1489 FILLER_0_3_217
*1490 FILLER_0_3_223
*1491 FILLER_0_3_225
*1492 FILLER_0_3_237
*1493 FILLER_0_3_249
*1494 FILLER_0_3_261
*1495 FILLER_0_3_27
*1496 FILLER_0_3_273
*1497 FILLER_0_3_279
*1498 FILLER_0_3_281
*1499 FILLER_0_3_293
*1500 FILLER_0_3_3
*1501 FILLER_0_3_305
*1502 FILLER_0_3_317
*1503 FILLER_0_3_329
*1504 FILLER_0_3_335
*1505 FILLER_0_3_337
*1506 FILLER_0_3_349
*1507 FILLER_0_3_39
*1508 FILLER_0_3_51
*1509 FILLER_0_3_55
*1510 FILLER_0_3_57
*1511 FILLER_0_3_69
*1512 FILLER_0_3_81
*1513 FILLER_0_3_93
*1514 FILLER_0_4_109
*1515 FILLER_0_4_121
*1516 FILLER_0_4_133
*1517 FILLER_0_4_139
*1518 FILLER_0_4_141
*1519 FILLER_0_4_15
*1520 FILLER_0_4_153
*1521 FILLER_0_4_165
*1522 FILLER_0_4_177
*1523 FILLER_0_4_189
*1524 FILLER_0_4_195
*1525 FILLER_0_4_197
*1526 FILLER_0_4_209
*1527 FILLER_0_4_221
*1528 FILLER_0_4_233
*1529 FILLER_0_4_245
*1530 FILLER_0_4_251
*1531 FILLER_0_4_253
*1532 FILLER_0_4_265
*1533 FILLER_0_4_27
*1534 FILLER_0_4_277
*1535 FILLER_0_4_289
*1536 FILLER_0_4_29
*1537 FILLER_0_4_3
*1538 FILLER_0_4_301
*1539 FILLER_0_4_307
*1540 FILLER_0_4_309
*1541 FILLER_0_4_321
*1542 FILLER_0_4_333
*1543 FILLER_0_4_345
*1544 FILLER_0_4_41
*1545 FILLER_0_4_53
*1546 FILLER_0_4_65
*1547 FILLER_0_4_77
*1548 FILLER_0_4_83
*1549 FILLER_0_4_85
*1550 FILLER_0_4_97
*1551 FILLER_0_5_105
*1552 FILLER_0_5_111
*1553 FILLER_0_5_113
*1554 FILLER_0_5_125
*1555 FILLER_0_5_137
*1556 FILLER_0_5_149
*1557 FILLER_0_5_15
*1558 FILLER_0_5_161
*1559 FILLER_0_5_167
*1560 FILLER_0_5_169
*1561 FILLER_0_5_181
*1562 FILLER_0_5_193
*1563 FILLER_0_5_205
*1564 FILLER_0_5_217
*1565 FILLER_0_5_223
*1566 FILLER_0_5_225
*1567 FILLER_0_5_237
*1568 FILLER_0_5_249
*1569 FILLER_0_5_261
*1570 FILLER_0_5_27
*1571 FILLER_0_5_273
*1572 FILLER_0_5_279
*1573 FILLER_0_5_281
*1574 FILLER_0_5_293
*1575 FILLER_0_5_3
*1576 FILLER_0_5_305
*1577 FILLER_0_5_317
*1578 FILLER_0_5_329
*1579 FILLER_0_5_335
*1580 FILLER_0_5_337
*1581 FILLER_0_5_349
*1582 FILLER_0_5_39
*1583 FILLER_0_5_51
*1584 FILLER_0_5_55
*1585 FILLER_0_5_57
*1586 FILLER_0_5_69
*1587 FILLER_0_5_81
*1588 FILLER_0_5_93
*1589 FILLER_0_6_109
*1590 FILLER_0_6_121
*1591 FILLER_0_6_133
*1592 FILLER_0_6_139
*1593 FILLER_0_6_141
*1594 FILLER_0_6_15