*SPEF "ieee 1481-1999"
*DESIGN "tt_um_RELOG_10M_Juan_Garcial"
*DATE "11:11:11 Fri 11 11, 1111"
*VENDOR "OpenRCX"
*PROGRAM "Parallel Extraction"
*VERSION "1.0"
*DESIGN_FLOW "NAME_SCOPE LOCAL" "PIN_CAP NONE"
*DIVIDER /
*DELIMITER :
*BUS_DELIMITER []
*T_UNIT 1 NS
*C_UNIT 1 PF
*R_UNIT 1 OHM
*L_UNIT 1 HENRY

*NAME_MAP
*3 clk
*4 ena
*5 rst_n
*6 ui_in[0]
*7 ui_in[1]
*8 ui_in[2]
*9 ui_in[3]
*10 ui_in[4]
*11 ui_in[5]
*12 ui_in[6]
*13 ui_in[7]
*14 uio_in[0]
*15 uio_in[1]
*16 uio_in[2]
*17 uio_in[3]
*18 uio_in[4]
*19 uio_in[5]
*20 uio_in[6]
*21 uio_in[7]
*22 net14
*23 net15
*24 net16
*25 net17
*26 net18
*27 net19
*28 net20
*29 net21
*30 uio_out[0]
*31 uio_out[1]
*32 uio_out[2]
*33 uio_out[3]
*34 uio_out[4]
*35 uio_out[5]
*36 uio_out[6]
*37 uio_out[7]
*38 net22
*39 net23
*40 net24
*41 net25
*42 net26
*43 net27
*44 net28
*45 net29
*46 D1\.ampm
*47 D1\.hrs\[0\]
*48 D1\.hrs\[1\]
*49 D1\.hrs\[2\]
*50 D1\.hrs\[3\]
*51 D1\.hrs\[4\]
*52 _000_
*53 _001_
*54 _002_
*55 _003_
*56 _004_
*57 _005_
*58 _006_
*59 _007_
*60 _008_
*61 _009_
*62 _010_
*63 _011_
*64 _012_
*65 _013_
*66 _014_
*67 _015_
*68 _016_
*69 _017_
*70 _018_
*71 _019_
*72 _020_
*73 _021_
*74 _022_
*75 _023_
*76 _024_
*77 _025_
*78 _026_
*79 _027_
*80 _028_
*81 _029_
*82 _030_
*83 _031_
*84 _032_
*85 _033_
*86 _034_
*87 _035_
*88 _036_
*89 _037_
*90 _038_
*91 _039_
*92 _040_
*93 _041_
*94 _042_
*95 _043_
*96 _044_
*97 _045_
*98 _046_
*99 _047_
*100 _048_
*101 _049_
*102 _050_
*103 _051_
*104 _052_
*105 _053_
*106 _054_
*107 _055_
*108 _056_
*109 _057_
*110 _058_
*111 _059_
*112 _060_
*113 _061_
*114 _062_
*115 _063_
*116 _064_
*117 _065_
*118 _066_
*119 _067_
*120 _068_
*121 _069_
*122 _070_
*123 _071_
*124 _072_
*125 _073_
*126 _074_
*127 _075_
*128 _076_
*129 _077_
*130 _078_
*131 _079_
*132 _080_
*133 _081_
*134 _082_
*135 _083_
*136 _084_
*137 _085_
*138 _086_
*139 _087_
*140 _088_
*141 _089_
*142 _090_
*143 _091_
*144 _092_
*145 _093_
*146 _094_
*147 _095_
*148 _096_
*149 _097_
*150 _098_
*151 _099_
*152 _100_
*153 _101_
*154 _102_
*155 _103_
*156 _104_
*157 _105_
*158 _106_
*159 _107_
*160 _108_
*161 _109_
*162 _110_
*163 _111_
*164 _112_
*165 _113_
*166 _114_
*167 _115_
*168 _116_
*169 _117_
*170 _118_
*171 _119_
*172 _120_
*173 _121_
*174 _122_
*175 _123_
*176 _124_
*177 _125_
*178 _126_
*179 _127_
*180 _128_
*181 _129_
*182 _130_
*183 _131_
*184 _132_
*185 _133_
*186 _134_
*187 _135_
*188 _136_
*189 _137_
*190 _138_
*191 _139_
*192 _140_
*193 _141_
*194 _142_
*195 _143_
*196 _144_
*197 _145_
*198 _146_
*199 _147_
*200 _148_
*201 _149_
*202 _150_
*203 _151_
*204 _152_
*205 _153_
*206 _154_
*207 _155_
*208 _156_
*209 _157_
*210 _158_
*211 _159_
*212 _160_
*213 _161_
*214 _162_
*215 _163_
*216 _164_
*217 _165_
*218 _166_
*219 _167_
*220 _168_
*221 _169_
*222 _170_
*223 _171_
*224 _172_
*225 _173_
*226 _174_
*227 _175_
*228 _176_
*229 _177_
*230 _178_
*231 _179_
*232 _180_
*233 _181_
*234 _182_
*235 _183_
*236 _184_
*237 _185_
*238 _186_
*239 _187_
*240 _188_
*241 _189_
*242 _190_
*243 _191_
*244 _192_
*245 _193_
*246 _194_
*247 _195_
*248 _196_
*249 _197_
*250 _198_
*251 _199_
*252 _200_
*253 _201_
*254 _202_
*255 _203_
*256 _204_
*257 _205_
*258 _206_
*259 _207_
*260 _208_
*261 _209_
*262 _210_
*263 _211_
*264 _212_
*265 _213_
*266 _214_
*267 _215_
*268 _216_
*269 _217_
*270 _218_
*271 _219_
*272 _220_
*273 _221_
*274 _222_
*275 _223_
*276 _224_
*277 _225_
*278 _226_
*279 _227_
*280 _228_
*281 _229_
*282 _230_
*283 _231_
*284 _232_
*285 _233_
*286 _234_
*287 _235_
*288 _236_
*289 _237_
*290 _238_
*291 _239_
*292 _240_
*293 _241_
*294 _242_
*295 _243_
*296 _244_
*297 _245_
*298 _246_
*299 _247_
*300 _248_
*301 _249_
*302 _250_
*303 _251_
*304 _252_
*305 _253_
*306 _254_
*307 _255_
*308 _256_
*309 _257_
*310 _258_
*311 _259_
*312 _260_
*313 _261_
*314 _262_
*315 _263_
*316 _264_
*317 _265_
*318 _266_
*319 _267_
*320 _268_
*321 _269_
*322 _270_
*323 _271_
*324 _272_
*325 _273_
*326 _274_
*327 _275_
*328 _276_
*329 _277_
*330 _278_
*331 _279_
*332 clk_1s
*333 clk_500u
*334 clk_reloj
*335 clknet_0_clk
*336 clknet_1_0__leaf_clk
*337 clknet_1_1__leaf_clk
*338 count_a\[0\]
*339 count_a\[10\]
*340 count_a\[11\]
*341 count_a\[12\]
*342 count_a\[1\]
*343 count_a\[2\]
*344 count_a\[3\]
*345 count_a\[4\]
*346 count_a\[5\]
*347 count_a\[6\]
*348 count_a\[7\]
*349 count_a\[8\]
*350 count_a\[9\]
*351 count_b\[0\]
*352 count_b\[10\]
*353 count_b\[1\]
*354 count_b\[2\]
*355 count_b\[3\]
*356 count_b\[4\]
*357 count_b\[5\]
*358 count_b\[6\]
*359 count_b\[7\]
*360 count_b\[8\]
*361 count_b\[9\]
*362 d_min_r\[0\]
*363 d_min_r\[1\]
*364 d_min_r\[2\]
*365 d_min_r\[3\]
*366 d_seg_r\[0\]
*367 d_seg_r\[1\]
*368 d_seg_r\[2\]
*369 d_seg_r\[3\]
*370 mode\[0\]
*371 mode\[1\]
*372 net1
*373 net10
*374 net11
*375 net12
*376 net13
*377 net2
*378 net3
*379 net30
*380 net31
*381 net32
*382 net33
*383 net34
*384 net35
*385 net36
*386 net37
*387 net38
*388 net39
*389 net4
*390 net40
*391 net41
*392 net5
*393 net6
*394 net7
*395 net8
*396 net9
*397 segments_
*398 u_min_r\[0\]
*399 u_min_r\[1\]
*400 u_min_r\[2\]
*401 u_min_r\[3\]
*402 u_seg_r\[0\]
*403 u_seg_r\[1\]
*404 u_seg_r\[2\]
*405 u_seg_r\[3\]
*406 FILLER_0_0_109
*407 FILLER_0_0_113
*408 FILLER_0_0_125
*409 FILLER_0_0_137
*410 FILLER_0_0_141
*411 FILLER_0_0_15
*412 FILLER_0_0_153
*413 FILLER_0_0_165
*414 FILLER_0_0_169
*415 FILLER_0_0_181
*416 FILLER_0_0_193
*417 FILLER_0_0_197
*418 FILLER_0_0_209
*419 FILLER_0_0_221
*420 FILLER_0_0_225
*421 FILLER_0_0_237
*422 FILLER_0_0_249
*423 FILLER_0_0_253
*424 FILLER_0_0_265
*425 FILLER_0_0_27
*426 FILLER_0_0_277
*427 FILLER_0_0_281
*428 FILLER_0_0_29
*429 FILLER_0_0_293
*430 FILLER_0_0_3
*431 FILLER_0_0_305
*432 FILLER_0_0_309
*433 FILLER_0_0_321
*434 FILLER_0_0_333
*435 FILLER_0_0_337
*436 FILLER_0_0_349
*437 FILLER_0_0_41
*438 FILLER_0_0_53
*439 FILLER_0_0_57
*440 FILLER_0_0_69
*441 FILLER_0_0_81
*442 FILLER_0_0_85
*443 FILLER_0_0_97
*444 FILLER_0_10_109
*445 FILLER_0_10_121
*446 FILLER_0_10_133
*447 FILLER_0_10_139
*448 FILLER_0_10_141
*449 FILLER_0_10_15
*450 FILLER_0_10_153
*451 FILLER_0_10_165
*452 FILLER_0_10_177
*453 FILLER_0_10_189
*454 FILLER_0_10_195
*455 FILLER_0_10_197
*456 FILLER_0_10_209
*457 FILLER_0_10_221
*458 FILLER_0_10_233
*459 FILLER_0_10_245
*460 FILLER_0_10_251
*461 FILLER_0_10_253
*462 FILLER_0_10_265
*463 FILLER_0_10_27
*464 FILLER_0_10_277
*465 FILLER_0_10_289
*466 FILLER_0_10_29
*467 FILLER_0_10_3
*468 FILLER_0_10_301
*469 FILLER_0_10_307
*470 FILLER_0_10_309
*471 FILLER_0_10_321
*472 FILLER_0_10_333
*473 FILLER_0_10_345
*474 FILLER_0_10_41
*475 FILLER_0_10_53
*476 FILLER_0_10_65
*477 FILLER_0_10_77
*478 FILLER_0_10_83
*479 FILLER_0_10_85
*480 FILLER_0_10_97
*481 FILLER_0_11_105
*482 FILLER_0_11_111
*483 FILLER_0_11_113
*484 FILLER_0_11_125
*485 FILLER_0_11_137
*486 FILLER_0_11_149
*487 FILLER_0_11_15
*488 FILLER_0_11_161
*489 FILLER_0_11_167
*490 FILLER_0_11_169
*491 FILLER_0_11_181
*492 FILLER_0_11_193
*493 FILLER_0_11_205
*494 FILLER_0_11_217
*495 FILLER_0_11_223
*496 FILLER_0_11_225
*497 FILLER_0_11_237
*498 FILLER_0_11_249
*499 FILLER_0_11_261
*500 FILLER_0_11_27
*501 FILLER_0_11_273
*502 FILLER_0_11_279
*503 FILLER_0_11_281
*504 FILLER_0_11_293
*505 FILLER_0_11_3
*506 FILLER_0_11_305
*507 FILLER_0_11_317
*508 FILLER_0_11_329
*509 FILLER_0_11_335
*510 FILLER_0_11_337
*511 FILLER_0_11_349
*512 FILLER_0_11_39
*513 FILLER_0_11_51
*514 FILLER_0_11_55
*515 FILLER_0_11_57
*516 FILLER_0_11_69
*517 FILLER_0_11_81
*518 FILLER_0_11_93
*519 FILLER_0_12_109
*520 FILLER_0_12_121
*521 FILLER_0_12_133
*522 FILLER_0_12_139
*523 FILLER_0_12_141
*524 FILLER_0_12_15
*525 FILLER_0_12_153
*526 FILLER_0_12_165
*527 FILLER_0_12_177
*528 FILLER_0_12_189
*529 FILLER_0_12_195
*530 FILLER_0_12_197
*531 FILLER_0_12_209
*532 FILLER_0_12_221
*533 FILLER_0_12_233
*534 FILLER_0_12_245
*535 FILLER_0_12_251
*536 FILLER_0_12_253
*537 FILLER_0_12_265
*538 FILLER_0_12_27
*539 FILLER_0_12_277
*540 FILLER_0_12_289
*541 FILLER_0_12_29
*542 FILLER_0_12_3
*543 FILLER_0_12_301
*544 FILLER_0_12_307
*545 FILLER_0_12_309
*546 FILLER_0_12_321
*547 FILLER_0_12_333
*548 FILLER_0_12_345
*549 FILLER_0_12_41
*550 FILLER_0_12_53
*551 FILLER_0_12_65
*552 FILLER_0_12_77
*553 FILLER_0_12_83
*554 FILLER_0_12_85
*555 FILLER_0_12_97
*556 FILLER_0_13_105
*557 FILLER_0_13_111
*558 FILLER_0_13_113
*559 FILLER_0_13_125
*560 FILLER_0_13_137
*561 FILLER_0_13_149
*562 FILLER_0_13_15
*563 FILLER_0_13_161
*564 FILLER_0_13_167
*565 FILLER_0_13_169
*566 FILLER_0_13_181
*567 FILLER_0_13_193
*568 FILLER_0_13_205
*569 FILLER_0_13_217
*570 FILLER_0_13_223
*571 FILLER_0_13_225
*572 FILLER_0_13_237
*573 FILLER_0_13_249
*574 FILLER_0_13_261
*575 FILLER_0_13_27
*576 FILLER_0_13_273
*577 FILLER_0_13_279
*578 FILLER_0_13_281
*579 FILLER_0_13_293
*580 FILLER_0_13_3
*581 FILLER_0_13_305
*582 FILLER_0_13_317
*583 FILLER_0_13_329
*584 FILLER_0_13_335
*585 FILLER_0_13_337
*586 FILLER_0_13_349
*587 FILLER_0_13_39
*588 FILLER_0_13_51
*589 FILLER_0_13_55
*590 FILLER_0_13_57
*591 FILLER_0_13_69
*592 FILLER_0_13_81
*593 FILLER_0_13_93
*594 FILLER_0_14_109
*595 FILLER_0_14_121
*596 FILLER_0_14_133
*597 FILLER_0_14_139
*598 FILLER_0_14_141
*599 FILLER_0_14_15
*600 FILLER_0_14_153
*601 FILLER_0_14_165
*602 FILLER_0_14_177
*603 FILLER_0_14_189
*604 FILLER_0_14_195
*605 FILLER_0_14_197
*606 FILLER_0_14_209
*607 FILLER_0_14_221
*608 FILLER_0_14_233
*609 FILLER_0_14_245
*610 FILLER_0_14_251
*611 FILLER_0_14_253
*612 FILLER_0_14_265
*613 FILLER_0_14_27
*614 FILLER_0_14_277
*615 FILLER_0_14_289
*616 FILLER_0_14_29
*617 FILLER_0_14_3
*618 FILLER_0_14_301
*619 FILLER_0_14_307
*620 FILLER_0_14_309
*621 FILLER_0_14_321
*622 FILLER_0_14_333
*623 FILLER_0_14_345
*624 FILLER_0_14_41
*625 FILLER_0_14_53
*626 FILLER_0_14_65
*627 FILLER_0_14_77
*628 FILLER_0_14_83
*629 FILLER_0_14_85
*630 FILLER_0_14_97
*631 FILLER_0_15_105
*632 FILLER_0_15_111
*633 FILLER_0_15_113
*634 FILLER_0_15_125
*635 FILLER_0_15_137
*636 FILLER_0_15_149
*637 FILLER_0_15_15
*638 FILLER_0_15_161
*639 FILLER_0_15_167
*640 FILLER_0_15_169
*641 FILLER_0_15_181
*642 FILLER_0_15_193
*643 FILLER_0_15_205
*644 FILLER_0_15_217
*645 FILLER_0_15_223
*646 FILLER_0_15_225
*647 FILLER_0_15_237
*648 FILLER_0_15_249
*649 FILLER_0_15_261
*650 FILLER_0_15_27
*651 FILLER_0_15_273
*652 FILLER_0_15_279
*653 FILLER_0_15_281
*654 FILLER_0_15_293
*655 FILLER_0_15_3
*656 FILLER_0_15_305
*657 FILLER_0_15_317
*658 FILLER_0_15_329
*659 FILLER_0_15_335
*660 FILLER_0_15_337
*661 FILLER_0_15_349
*662 FILLER_0_15_39
*663 FILLER_0_15_51
*664 FILLER_0_15_55
*665 FILLER_0_15_57
*666 FILLER_0_15_69
*667 FILLER_0_15_81
*668 FILLER_0_15_93
*669 FILLER_0_16_109
*670 FILLER_0_16_121
*671 FILLER_0_16_133
*672 FILLER_0_16_139
*673 FILLER_0_16_141
*674 FILLER_0_16_15
*675 FILLER_0_16_153
*676 FILLER_0_16_165
*677 FILLER_0_16_177
*678 FILLER_0_16_189
*679 FILLER_0_16_195
*680 FILLER_0_16_197
*681 FILLER_0_16_209
*682 FILLER_0_16_221
*683 FILLER_0_16_233
*684 FILLER_0_16_245
*685 FILLER_0_16_251
*686 FILLER_0_16_253
*687 FILLER_0_16_265
*688 FILLER_0_16_27
*689 FILLER_0_16_277
*690 FILLER_0_16_289
*691 FILLER_0_16_29
*692 FILLER_0_16_3
*693 FILLER_0_16_301
*694 FILLER_0_16_307
*695 FILLER_0_16_309
*696 FILLER_0_16_321
*697 FILLER_0_16_333
*698 FILLER_0_16_345
*699 FILLER_0_16_41
*700 FILLER_0_16_53
*701 FILLER_0_16_65
*702 FILLER_0_16_77
*703 FILLER_0_16_83
*704 FILLER_0_16_85
*705 FILLER_0_16_97
*706 FILLER_0_17_105
*707 FILLER_0_17_111
*708 FILLER_0_17_113
*709 FILLER_0_17_125
*710 FILLER_0_17_137
*711 FILLER_0_17_149
*712 FILLER_0_17_15
*713 FILLER_0_17_161
*714 FILLER_0_17_167
*715 FILLER_0_17_169
*716 FILLER_0_17_181
*717 FILLER_0_17_193
*718 FILLER_0_17_205
*719 FILLER_0_17_217
*720 FILLER_0_17_223
*721 FILLER_0_17_225
*722 FILLER_0_17_237
*723 FILLER_0_17_249
*724 FILLER_0_17_261
*725 FILLER_0_17_27
*726 FILLER_0_17_273
*727 FILLER_0_17_279
*728 FILLER_0_17_281
*729 FILLER_0_17_293
*730 FILLER_0_17_3
*731 FILLER_0_17_305
*732 FILLER_0_17_317
*733 FILLER_0_17_329
*734 FILLER_0_17_335
*735 FILLER_0_17_337
*736 FILLER_0_17_349
*737 FILLER_0_17_39
*738 FILLER_0_17_51
*739 FILLER_0_17_55
*740 FILLER_0_17_57
*741 FILLER_0_17_69
*742 FILLER_0_17_81
*743 FILLER_0_17_93
*744 FILLER_0_18_109
*745 FILLER_0_18_121
*746 FILLER_0_18_133
*747 FILLER_0_18_139
*748 FILLER_0_18_141
*749 FILLER_0_18_15
*750 FILLER_0_18_153
*751 FILLER_0_18_165
*752 FILLER_0_18_177
*753 FILLER_0_18_189
*754 FILLER_0_18_195
*755 FILLER_0_18_197
*756 FILLER_0_18_209
*757 FILLER_0_18_221
*758 FILLER_0_18_233
*759 FILLER_0_18_245
*760 FILLER_0_18_251
*761 FILLER_0_18_253
*762 FILLER_0_18_265
*763 FILLER_0_18_27
*764 FILLER_0_18_277
*765 FILLER_0_18_289
*766 FILLER_0_18_29
*767 FILLER_0_18_3
*768 FILLER_0_18_301
*769 FILLER_0_18_307
*770 FILLER_0_18_309
*771 FILLER_0_18_321
*772 FILLER_0_18_333
*773 FILLER_0_18_345
*774 FILLER_0_18_41
*775 FILLER_0_18_53
*776 FILLER_0_18_65
*777 FILLER_0_18_77
*778 FILLER_0_18_83
*779 FILLER_0_18_85
*780 FILLER_0_18_97
*781 FILLER_0_19_105
*782 FILLER_0_19_111
*783 FILLER_0_19_113
*784 FILLER_0_19_125
*785 FILLER_0_19_137
*786 FILLER_0_19_149
*787 FILLER_0_19_15
*788 FILLER_0_19_161
*789 FILLER_0_19_167
*790 FILLER_0_19_169
*791 FILLER_0_19_181
*792 FILLER_0_19_193
*793 FILLER_0_19_205
*794 FILLER_0_19_217
*795 FILLER_0_19_223
*796 FILLER_0_19_225
*797 FILLER_0_19_237
*798 FILLER_0_19_249
*799 FILLER_0_19_261
*800 FILLER_0_19_27
*801 FILLER_0_19_273
*802 FILLER_0_19_279
*803 FILLER_0_19_281
*804 FILLER_0_19_293
*805 FILLER_0_19_3
*806 FILLER_0_19_305
*807 FILLER_0_19_317
*808 FILLER_0_19_329
*809 FILLER_0_19_335
*810 FILLER_0_19_337
*811 FILLER_0_19_349
*812 FILLER_0_19_39
*813 FILLER_0_19_51
*814 FILLER_0_19_55
*815 FILLER_0_19_57
*816 FILLER_0_19_69
*817 FILLER_0_19_81
*818 FILLER_0_19_93
*819 FILLER_0_1_105
*820 FILLER_0_1_111
*821 FILLER_0_1_113
*822 FILLER_0_1_125
*823 FILLER_0_1_137
*824 FILLER_0_1_149
*825 FILLER_0_1_15
*826 FILLER_0_1_161
*827 FILLER_0_1_167
*828 FILLER_0_1_169
*829 FILLER_0_1_181
*830 FILLER_0_1_193
*831 FILLER_0_1_205
*832 FILLER_0_1_217
*833 FILLER_0_1_223
*834 FILLER_0_1_225
*835 FILLER_0_1_237
*836 FILLER_0_1_249
*837 FILLER_0_1_261
*838 FILLER_0_1_27
*839 FILLER_0_1_273
*840 FILLER_0_1_279
*841 FILLER_0_1_281
*842 FILLER_0_1_293
*843 FILLER_0_1_3
*844 FILLER_0_1_305
*845 FILLER_0_1_317
*846 FILLER_0_1_329
*847 FILLER_0_1_335
*848 FILLER_0_1_337
*849 FILLER_0_1_349
*850 FILLER_0_1_39
*851 FILLER_0_1_51
*852 FILLER_0_1_55
*853 FILLER_0_1_57
*854 FILLER_0_1_69
*855 FILLER_0_1_81
*856 FILLER_0_1_93
*857 FILLER_0_20_109
*858 FILLER_0_20_121
*859 FILLER_0_20_133
*860 FILLER_0_20_139
*861 FILLER_0_20_141
*862 FILLER_0_20_15
*863 FILLER_0_20_153
*864 FILLER_0_20_165
*865 FILLER_0_20_177
*866 FILLER_0_20_189
*867 FILLER_0_20_195
*868 FILLER_0_20_197
*869 FILLER_0_20_209
*870 FILLER_0_20_221
*871 FILLER_0_20_233
*872 FILLER_0_20_245
*873 FILLER_0_20_251
*874 FILLER_0_20_253
*875 FILLER_0_20_265
*876 FILLER_0_20_27
*877 FILLER_0_20_277
*878 FILLER_0_20_289
*879 FILLER_0_20_29
*880 FILLER_0_20_3
*881 FILLER_0_20_301
*882 FILLER_0_20_307
*883 FILLER_0_20_309
*884 FILLER_0_20_321
*885 FILLER_0_20_333
*886 FILLER_0_20_345
*887 FILLER_0_20_41
*888 FILLER_0_20_53
*889 FILLER_0_20_65
*890 FILLER_0_20_77
*891 FILLER_0_20_83
*892 FILLER_0_20_85
*893 FILLER_0_20_97
*894 FILLER_0_21_105
*895 FILLER_0_21_111
*896 FILLER_0_21_134
*897 FILLER_0_21_138
*898 FILLER_0_21_15
*899 FILLER_0_21_159
*900 FILLER_0_21_167
*901 FILLER_0_21_169
*902 FILLER_0_21_181
*903 FILLER_0_21_193
*904 FILLER_0_21_205
*905 FILLER_0_21_217
*906 FILLER_0_21_223
*907 FILLER_0_21_225
*908 FILLER_0_21_237
*909 FILLER_0_21_249
*910 FILLER_0_21_261
*911 FILLER_0_21_27
*912 FILLER_0_21_273
*913 FILLER_0_21_279
*914 FILLER_0_21_281
*915 FILLER_0_21_293
*916 FILLER_0_21_3
*917 FILLER_0_21_305
*918 FILLER_0_21_317
*919 FILLER_0_21_329
*920 FILLER_0_21_335
*921 FILLER_0_21_337
*922 FILLER_0_21_349
*923 FILLER_0_21_39
*924 FILLER_0_21_51
*925 FILLER_0_21_55
*926 FILLER_0_21_57
*927 FILLER_0_21_69
*928 FILLER_0_21_81
*929 FILLER_0_21_93
*930 FILLER_0_22_109
*931 FILLER_0_22_132
*932 FILLER_0_22_15
*933 FILLER_0_22_174
*934 FILLER_0_22_182
*935 FILLER_0_22_188
*936 FILLER_0_22_197
*937 FILLER_0_22_203
*938 FILLER_0_22_246
*939 FILLER_0_22_253
*940 FILLER_0_22_265
*941 FILLER_0_22_27
*942 FILLER_0_22_277
*943 FILLER_0_22_289
*944 FILLER_0_22_29
*945 FILLER_0_22_3
*946 FILLER_0_22_301
*947 FILLER_0_22_307
*948 FILLER_0_22_309
*949 FILLER_0_22_321
*950 FILLER_0_22_333
*951 FILLER_0_22_345
*952 FILLER_0_22_41
*953 FILLER_0_22_45
*954 FILLER_0_22_50
*955 FILLER_0_22_62
*956 FILLER_0_22_74
*957 FILLER_0_22_82
*958 FILLER_0_22_85
*959 FILLER_0_22_97
*960 FILLER_0_23_108
*961 FILLER_0_23_113
*962 FILLER_0_23_118
*963 FILLER_0_23_122
*964 FILLER_0_23_128
*965 FILLER_0_23_15
*966 FILLER_0_23_159
*967 FILLER_0_23_167
*968 FILLER_0_23_169
*969 FILLER_0_23_223
*970 FILLER_0_23_237
*971 FILLER_0_23_268
*972 FILLER_0_23_27
*973 FILLER_0_23_281
*974 FILLER_0_23_293
*975 FILLER_0_23_3
*976 FILLER_0_23_305
*977 FILLER_0_23_317
*978 FILLER_0_23_329
*979 FILLER_0_23_33
*980 FILLER_0_23_335
*981 FILLER_0_23_337
*982 FILLER_0_23_349
*983 FILLER_0_23_50
*984 FILLER_0_23_60
*985 FILLER_0_23_72
*986 FILLER_0_23_84
*987 FILLER_0_23_96
*988 FILLER_0_24_109
*989 FILLER_0_24_121
*990 FILLER_0_24_127
*991 FILLER_0_24_137
*992 FILLER_0_24_15
*993 FILLER_0_24_151
*994 FILLER_0_24_163
*995 FILLER_0_24_175
*996 FILLER_0_24_187
*997 FILLER_0_24_231
*998 FILLER_0_24_243
*999 FILLER_0_24_247
*1000 FILLER_0_24_251
*1001 FILLER_0_24_256
*1002 FILLER_0_24_268
*1003 FILLER_0_24_27
*1004 FILLER_0_24_280
*1005 FILLER_0_24_29
*1006 FILLER_0_24_292
*1007 FILLER_0_24_3
*1008 FILLER_0_24_304
*1009 FILLER_0_24_309
*1010 FILLER_0_24_321
*1011 FILLER_0_24_333
*1012 FILLER_0_24_345
*1013 FILLER_0_24_69
*1014 FILLER_0_24_81
*1015 FILLER_0_24_85
*1016 FILLER_0_24_97
*1017 FILLER_0_25_120
*1018 FILLER_0_25_132
*1019 FILLER_0_25_140
*1020 FILLER_0_25_144
*1021 FILLER_0_25_15
*1022 FILLER_0_25_162
*1023 FILLER_0_25_169
*1024 FILLER_0_25_181
*1025 FILLER_0_25_193
*1026 FILLER_0_25_222
*1027 FILLER_0_25_225
*1028 FILLER_0_25_233
*1029 FILLER_0_25_237
*1030 FILLER_0_25_268
*1031 FILLER_0_25_27
*1032 FILLER_0_25_281
*1033 FILLER_0_25_293
*1034 FILLER_0_25_3
*1035 FILLER_0_25_305
*1036 FILLER_0_25_317
*1037 FILLER_0_25_329
*1038 FILLER_0_25_335
*1039 FILLER_0_25_337
*1040 FILLER_0_25_349
*1041 FILLER_0_25_39
*1042 FILLER_0_25_64
*1043 FILLER_0_25_84
*1044 FILLER_0_25_90
*1045 FILLER_0_26_132
*1046 FILLER_0_26_148
*1047 FILLER_0_26_15
*1048 FILLER_0_26_159
*1049 FILLER_0_26_165
*1050 FILLER_0_26_173
*1051 FILLER_0_26_185
*1052 FILLER_0_26_193
*1053 FILLER_0_26_197
*1054 FILLER_0_26_209
*1055 FILLER_0_26_221
*1056 FILLER_0_26_231
*1057 FILLER_0_26_27
*1058 FILLER_0_26_274
*1059 FILLER_0_26_286
*1060 FILLER_0_26_29
*1061 FILLER_0_26_298
*1062 FILLER_0_26_3
*1063 FILLER_0_26_306
*1064 FILLER_0_26_309
*1065 FILLER_0_26_321
*1066 FILLER_0_26_333
*1067 FILLER_0_26_345
*1068 FILLER_0_26_41
*1069 FILLER_0_26_48
*1070 FILLER_0_26_56
*1071 FILLER_0_26_74
*1072 FILLER_0_26_82
*1073 FILLER_0_26_85
*1074 FILLER_0_27_100
*1075 FILLER_0_27_111
*1076 FILLER_0_27_128
*1077 FILLER_0_27_137
*1078 FILLER_0_27_15
*1079 FILLER_0_27_177
*1080 FILLER_0_27_191
*1081 FILLER_0_27_216
*1082 FILLER_0_27_231
*1083 FILLER_0_27_27
*1084 FILLER_0_27_281
*1085 FILLER_0_27_293
*1086 FILLER_0_27_3
*1087 FILLER_0_27_305
*1088 FILLER_0_27_317
*1089 FILLER_0_27_329
*1090 FILLER_0_27_335
*1091 FILLER_0_27_337
*1092 FILLER_0_27_349
*1093 FILLER_0_27_39
*1094 FILLER_0_27_50
*1095 FILLER_0_27_57
*1096 FILLER_0_27_65
*1097 FILLER_0_27_73
*1098 FILLER_0_27_85
*1099 FILLER_0_28_105
*1100 FILLER_0_28_115
*1101 FILLER_0_28_126
*1102 FILLER_0_28_138
*1103 FILLER_0_28_141
*1104 FILLER_0_28_15
*1105 FILLER_0_28_157
*1106 FILLER_0_28_169
*1107 FILLER_0_28_181
*1108 FILLER_0_28_194
*1109 FILLER_0_28_203
*1110 FILLER_0_28_211
*1111 FILLER_0_28_217
*1112 FILLER_0_28_227
*1113 FILLER_0_28_239
*1114 FILLER_0_28_251
*1115 FILLER_0_28_253
*1116 FILLER_0_28_27
*1117 FILLER_0_28_277
*1118 FILLER_0_28_289
*1119 FILLER_0_28_3
*1120 FILLER_0_28_301
*1121 FILLER_0_28_307
*1122 FILLER_0_28_309
*1123 FILLER_0_28_321
*1124 FILLER_0_28_327
*1125 FILLER_0_28_335
*1126 FILLER_0_28_344
*1127 FILLER_0_28_350
*1128 FILLER_0_28_57
*1129 FILLER_0_28_63
*1130 FILLER_0_28_80
*1131 FILLER_0_28_85
*1132 FILLER_0_28_97
*1133 FILLER_0_29_102
*1134 FILLER_0_29_108
*1135 FILLER_0_29_121
*1136 FILLER_0_29_132
*1137 FILLER_0_29_144
*1138 FILLER_0_29_15
*1139 FILLER_0_29_156
*1140 FILLER_0_29_169
*1141 FILLER_0_29_183
*1142 FILLER_0_29_225
*1143 FILLER_0_29_232
*1144 FILLER_0_29_238
*1145 FILLER_0_29_259
*1146 FILLER_0_29_27
*1147 FILLER_0_29_271
*1148 FILLER_0_29_279
*1149 FILLER_0_29_297
*1150 FILLER_0_29_3
*1151 FILLER_0_29_309
*1152 FILLER_0_29_313
*1153 FILLER_0_29_349
*1154 FILLER_0_29_54
*1155 FILLER_0_29_63
*1156 FILLER_0_29_71
*1157 FILLER_0_29_90
*1158 FILLER_0_2_109
*1159 FILLER_0_2_121
*1160 FILLER_0_2_133
*1161 FILLER_0_2_139
*1162 FILLER_0_2_141
*1163 FILLER_0_2_15
*1164 FILLER_0_2_153
*1165 FILLER_0_2_165
*1166 FILLER_0_2_177
*1167 FILLER_0_2_189
*1168 FILLER_0_2_195
*1169 FILLER_0_2_197
*1170 FILLER_0_2_209
*1171 FILLER_0_2_221
*1172 FILLER_0_2_233
*1173 FILLER_0_2_245
*1174 FILLER_0_2_251
*1175 FILLER_0_2_253
*1176 FILLER_0_2_265
*1177 FILLER_0_2_27
*1178 FILLER_0_2_277
*1179 FILLER_0_2_289
*1180 FILLER_0_2_29
*1181 FILLER_0_2_3
*1182 FILLER_0_2_301
*1183 FILLER_0_2_307
*1184 FILLER_0_2_309
*1185 FILLER_0_2_321
*1186 FILLER_0_2_333
*1187 FILLER_0_2_345
*1188 FILLER_0_2_41
*1189 FILLER_0_2_53
*1190 FILLER_0_2_65
*1191 FILLER_0_2_77
*1192 FILLER_0_2_83
*1193 FILLER_0_2_85
*1194 FILLER_0_2_97
*1195 FILLER_0_30_131
*1196 FILLER_0_30_139
*1197 FILLER_0_30_141
*1198 FILLER_0_30_15
*1199 FILLER_0_30_151
*1200 FILLER_0_30_159
*1201 FILLER_0_30_170
*1202 FILLER_0_30_185
*1203 FILLER_0_30_193
*1204 FILLER_0_30_197
*1205 FILLER_0_30_202
*1206 FILLER_0_30_238
*1207 FILLER_0_30_244
*1208 FILLER_0_30_248
*1209 FILLER_0_30_253
*1210 FILLER_0_30_265
*1211 FILLER_0_30_27
*1212 FILLER_0_30_277
*1213 FILLER_0_30_29
*1214 FILLER_0_30_3
*1215 FILLER_0_30_301
*1216 FILLER_0_30_307
*1217 FILLER_0_30_309
*1218 FILLER_0_30_350
*1219 FILLER_0_30_54
*1220 FILLER_0_30_66
*1221 FILLER_0_30_78
*1222 FILLER_0_30_85
*1223 FILLER_0_31_136
*1224 FILLER_0_31_148
*1225 FILLER_0_31_15
*1226 FILLER_0_31_166
*1227 FILLER_0_31_196
*1228 FILLER_0_31_208
*1229 FILLER_0_31_220
*1230 FILLER_0_31_225
*1231 FILLER_0_31_262
*1232 FILLER_0_31_27
*1233 FILLER_0_31_274
*1234 FILLER_0_31_3
*1235 FILLER_0_31_308
*1236 FILLER_0_31_312
*1237 FILLER_0_31_334
*1238 FILLER_0_31_349
*1239 FILLER_0_31_54
*1240 FILLER_0_31_57
*1241 FILLER_0_31_61
*1242 FILLER_0_31_65
*1243 FILLER_0_31_77
*1244 FILLER_0_31_85
*1245 FILLER_0_32_121
*1246 FILLER_0_32_133
*1247 FILLER_0_32_139
*1248 FILLER_0_32_141
*1249 FILLER_0_32_145
*1250 FILLER_0_32_15
*1251 FILLER_0_32_152
*1252 FILLER_0_32_156
*1253 FILLER_0_32_162
*1254 FILLER_0_32_166
*1255 FILLER_0_32_172
*1256 FILLER_0_32_180
*1257 FILLER_0_32_206
*1258 FILLER_0_32_218
*1259 FILLER_0_32_230
*1260 FILLER_0_32_258
*1261 FILLER_0_32_27
*1262 FILLER_0_32_270
*1263 FILLER_0_32_29
*1264 FILLER_0_32_297
*1265 FILLER_0_32_3
*1266 FILLER_0_32_307
*1267 FILLER_0_32_314
*1268 FILLER_0_32_57
*1269 FILLER_0_32_76
*1270 FILLER_0_32_85
*1271 FILLER_0_32_97
*1272 FILLER_0_33_104
*1273 FILLER_0_33_113
*1274 FILLER_0_33_125
*1275 FILLER_0_33_137
*1276 FILLER_0_33_15
*1277 FILLER_0_33_150
*1278 FILLER_0_33_162
*1279 FILLER_0_33_169
*1280 FILLER_0_33_177
*1281 FILLER_0_33_192
*1282 FILLER_0_33_208
*1283 FILLER_0_33_220
*1284 FILLER_0_33_225
*1285 FILLER_0_33_23
*1286 FILLER_0_33_248
*1287 FILLER_0_33_260
*1288 FILLER_0_33_272
*1289 FILLER_0_33_276
*1290 FILLER_0_33_3
*1291 FILLER_0_33_314
*1292 FILLER_0_33_321
*1293 FILLER_0_33_329
*1294 FILLER_0_33_335
*1295 FILLER_0_33_345
*1296 FILLER_0_33_53
*1297 FILLER_0_33_57
*1298 FILLER_0_33_65
*1299 FILLER_0_33_92
*1300 FILLER_0_34_105
*1301 FILLER_0_34_117
*1302 FILLER_0_34_129
*1303 FILLER_0_34_15
*1304 FILLER_0_34_160
*1305 FILLER_0_34_172
*1306 FILLER_0_34_178
*1307 FILLER_0_34_186
*1308 FILLER_0_34_220
*1309 FILLER_0_34_250
*1310 FILLER_0_34_253
*1311 FILLER_0_34_265
*1312 FILLER_0_34_27
*1313 FILLER_0_34_277
*1314 FILLER_0_34_283
*1315 FILLER_0_34_29
*1316 FILLER_0_34_293
*1317 FILLER_0_34_297
*1318 FILLER_0_34_3
*1319 FILLER_0_34_304
*1320 FILLER_0_34_339
*1321 FILLER_0_34_346
*1322 FILLER_0_34_35
*1323 FILLER_0_34_350
*1324 FILLER_0_34_45
*1325 FILLER_0_34_57
*1326 FILLER_0_34_65
*1327 FILLER_0_34_70
*1328 FILLER_0_34_82
*1329 FILLER_0_34_85
*1330 FILLER_0_34_93
*1331 FILLER_0_35_103
*1332 FILLER_0_35_111
*1333 FILLER_0_35_117
*1334 FILLER_0_35_123
*1335 FILLER_0_35_129
*1336 FILLER_0_35_15
*1337 FILLER_0_35_164
*1338 FILLER_0_35_169
*1339 FILLER_0_35_181
*1340 FILLER_0_35_187
*1341 FILLER_0_35_201
*1342 FILLER_0_35_216
*1343 FILLER_0_35_225
*1344 FILLER_0_35_260
*1345 FILLER_0_35_27
*1346 FILLER_0_35_272
*1347 FILLER_0_35_281
*1348 FILLER_0_35_3
*1349 FILLER_0_35_311
*1350 FILLER_0_35_337
*1351 FILLER_0_35_39
*1352 FILLER_0_35_51
*1353 FILLER_0_35_55
*1354 FILLER_0_35_80
*1355 FILLER_0_36_130
*1356 FILLER_0_36_148
*1357 FILLER_0_36_15
*1358 FILLER_0_36_157
*1359 FILLER_0_36_169
*1360 FILLER_0_36_181
*1361 FILLER_0_36_209
*1362 FILLER_0_36_263
*1363 FILLER_0_36_27
*1364 FILLER_0_36_271
*1365 FILLER_0_36_29
*1366 FILLER_0_36_3
*1367 FILLER_0_36_304
*1368 FILLER_0_36_317
*1369 FILLER_0_36_339
*1370 FILLER_0_36_349
*1371 FILLER_0_36_41
*1372 FILLER_0_36_53
*1373 FILLER_0_36_85
*1374 FILLER_0_36_92
*1375 FILLER_0_37_124
*1376 FILLER_0_37_139
*1377 FILLER_0_37_143
*1378 FILLER_0_37_15
*1379 FILLER_0_37_151
*1380 FILLER_0_37_163
*1381 FILLER_0_37_167
*1382 FILLER_0_37_175
*1383 FILLER_0_37_183
*1384 FILLER_0_37_192
*1385 FILLER_0_37_214
*1386 FILLER_0_37_222
*1387 FILLER_0_37_225
*1388 FILLER_0_37_231
*1389 FILLER_0_37_263
*1390 FILLER_0_37_27
*1391 FILLER_0_37_275
*1392 FILLER_0_37_279
*1393 FILLER_0_37_3
*1394 FILLER_0_37_312
*1395 FILLER_0_37_337
*1396 FILLER_0_37_345
*1397 FILLER_0_37_350
*1398 FILLER_0_37_39
*1399 FILLER_0_37_51
*1400 FILLER_0_37_55
*1401 FILLER_0_37_57
*1402 FILLER_0_37_61
*1403 FILLER_0_37_81
*1404 FILLER_0_37_93
*1405 FILLER_0_38_102
*1406 FILLER_0_38_110
*1407 FILLER_0_38_116
*1408 FILLER_0_38_128
*1409 FILLER_0_38_14
*1410 FILLER_0_38_144
*1411 FILLER_0_38_150
*1412 FILLER_0_38_154
*1413 FILLER_0_38_158
*1414 FILLER_0_38_162
*1415 FILLER_0_38_166
*1416 FILLER_0_38_169
*1417 FILLER_0_38_174
*1418 FILLER_0_38_178
*1419 FILLER_0_38_18
*1420 FILLER_0_38_182
*1421 FILLER_0_38_186
*1422 FILLER_0_38_190
*1423 FILLER_0_38_195
*1424 FILLER_0_38_200
*1425 FILLER_0_38_212
*1426 FILLER_0_38_22
*1427 FILLER_0_38_225
*1428 FILLER_0_38_233
*1429 FILLER_0_38_238
*1430 FILLER_0_38_246
*1431 FILLER_0_38_265
*1432 FILLER_0_38_277
*1433 FILLER_0_38_281
*1434 FILLER_0_38_295
*1435 FILLER_0_38_3
*1436 FILLER_0_38_302
*1437 FILLER_0_38_309
*1438 FILLER_0_38_32
*1439 FILLER_0_38_321
*1440 FILLER_0_38_326
*1441 FILLER_0_38_330
*1442 FILLER_0_38_334
*1443 FILLER_0_38_343
*1444 FILLER_0_38_38
*1445 FILLER_0_38_42
*1446 FILLER_0_38_46
*1447 FILLER_0_38_50
*1448 FILLER_0_38_54
*1449 FILLER_0_38_57
*1450 FILLER_0_38_62
*1451 FILLER_0_38_76
*1452 FILLER_0_38_85
*1453 FILLER_0_38_93
*1454 FILLER_0_3_105
*1455 FILLER_0_3_111
*1456 FILLER_0_3_113
*1457 FILLER_0_3_125
*1458 FILLER_0_3_137
*1459 FILLER_0_3_149
*1460 FILLER_0_3_15
*1461 FILLER_0_3_161
*1462 FILLER_0_3_167
*1463 FILLER_0_3_169
*1464 FILLER_0_3_181
*1465 FILLER_0_3_193
*1466 FILLER_0_3_205
*1467 FILLER_0_3_217
*1468 FILLER_0_3_223
*1469 FILLER_0_3_225
*1470 FILLER_0_3_237
*1471 FILLER_0_3_249
*1472 FILLER_0_3_261
*1473 FILLER_0_3_27
*1474 FILLER_0_3_273
*1475 FILLER_0_3_279
*1476 FILLER_0_3_281
*1477 FILLER_0_3_293
*1478 FILLER_0_3_3
*1479 FILLER_0_3_305
*1480 FILLER_0_3_317
*1481 FILLER_0_3_329
*1482 FILLER_0_3_335
*1483 FILLER_0_3_337
*1484 FILLER_0_3_349
*1485 FILLER_0_3_39
*1486 FILLER_0_3_51
*1487 FILLER_0_3_55
*1488 FILLER_0_3_57
*1489 FILLER_0_3_69
*1490 FILLER_0_3_81
*1491 FILLER_0_3_93
*1492 FILLER_0_4_109
*1493 FILLER_0_4_121
*1494 FILLER_0_4_133
*1495 FILLER_0_4_139
*1496 FILLER_0_4_141
*1497 FILLER_0_4_15
*1498 FILLER_0_4_153
*1499 FILLER_0_4_165
*1500 FILLER_0_4_177
*1501 FILLER_0_4_189
*1502 FILLER_0_4_195
*1503 FILLER_0_4_197
*1504 FILLER_0_4_209
*1505 FILLER_0_4_221
*1506 FILLER_0_4_233
*1507 FILLER_0_4_245
*1508 FILLER_0_4_251
*1509 FILLER_0_4_253
*1510 FILLER_0_4_265
*1511 FILLER_0_4_27
*1512 FILLER_0_4_277
*1513 FILLER_0_4_289
*1514 FILLER_0_4_29
*1515 FILLER_0_4_3
*1516 FILLER_0_4_301
*1517 FILLER_0_4_307
*1518 FILLER_0_4_309
*1519 FILLER_0_4_321
*1520 FILLER_0_4_333
*1521 FILLER_0_4_345
*1522 FILLER_0_4_41
*1523 FILLER_0_4_53
*1524 FILLER_0_4_65
*1525 FILLER_0_4_77
*1526 FILLER_0_4_83
*1527 FILLER_0_4_85
*1528 FILLER_0_4_97
*1529 FILLER_0_5_105
*1530 FILLER_0_5_111
*1531 FILLER_0_5_113
*1532 FILLER_0_5_125
*1533 FILLER_0_5_137
*1534 FILLER_0_5_149
*1535 FILLER_0_5_15
*1536 FILLER_0_5_161
*1537 FILLER_0_5_167
*1538 FILLER_0_5_169
*1539 FILLER_0_5_181
*1540 FILLER_0_5_193
*1541 FILLER_0_5_205
*1542 FILLER_0_5_217
*1543 FILLER_0_5_223
*1544 FILLER_0_5_225
*1545 FILLER_0_5_237
*1546 FILLER_0_5_249
*1547 FILLER_0_5_261
*1548 FILLER_0_5_27
*1549 FILLER_0_5_273
*1550 FILLER_0_5_279
*1551 FILLER_0_5_281
*1552 FILLER_0_5_293
*1553 FILLER_0_5_3
*1554 FILLER_0_5_305
*1555 FILLER_0_5_317
*1556 FILLER_0_5_329
*1557 FILLER_0_5_335
*1558 FILLER_0_5_337
*1559 FILLER_0_5_349
*1560 FILLER_0_5_39
*1561 FILLER_0_5_51
*1562 FILLER_0_5_55
*1563 FILLER_0_5_57
*1564 FILLER_0_5_69
*1565 FILLER_0_5_81
*1566 FILLER_0_5_93
*1567 FILLER_0_6_109
*1568 FILLER_0_6_121
*1569 FILLER_0_6_133
*1570 FILLER_0_6_139
*1571 FILLER_0_6_141
*1572 FILLER_0_6_15
*1573 FILLER_0_6_153
*1574 FILLER_0_6_165
*1575 FILLER_0_6_177
*1576 FILLER_0_6_189
*1577 FILLER_0_6_195
*1578 FILLER_0_6_197
*1579 FILLER_0_6_209
*1580 FILLER_0_6_221
*1581 FILLER_0_6_233
*1582 FILLER_0_6_245
*1583 FILLER_0_6_251
*1584 FILLER_0_6_253
*1585 FILLER_0_6_265
*1586 FILLER_0_6_27
*1587 FILLER_0_6_277
*1588 FILLER_0_6_289
*1589 FILLER_0_6_29
*1590 FILLER_0_6_3
*1591 FILLER_0_6_301
*1592 FILLER_0_6_307