*SPEF "ieee 1481-1999"
*DESIGN "tt_um_robojan_top"
*DATE "11:11:11 Fri 11 11, 1111"
*VENDOR "OpenRCX"
*PROGRAM "Parallel Extraction"
*VERSION "1.0"
*DESIGN_FLOW "NAME_SCOPE LOCAL" "PIN_CAP NONE"
*DIVIDER /
*DELIMITER :
*BUS_DELIMITER []
*T_UNIT 1 NS
*C_UNIT 1 PF
*R_UNIT 1 OHM
*L_UNIT 1 HENRY

*NAME_MAP
*3 clk
*4 ena
*5 rst_n
*6 ui_in[0]
*7 ui_in[1]
*8 ui_in[2]
*9 ui_in[3]
*10 ui_in[4]
*11 ui_in[5]
*12 ui_in[6]
*13 ui_in[7]
*14 uio_in[0]
*15 uio_in[1]
*16 uio_in[2]
*17 uio_in[3]
*18 uio_in[4]
*19 uio_in[5]
*20 uio_in[6]
*21 uio_in[7]
*22 uio_oe[0]
*23 net73
*24 net74
*25 net75
*26 net64
*27 net65
*28 net66
*29 net67
*30 uio_out[0]
*31 uio_out[1]
*32 uio_out[2]
*33 uio_out[3]
*34 net68
*35 net69
*36 net70
*37 net71
*38 uo_out[0]
*39 uo_out[1]
*40 uo_out[2]
*41 uo_out[3]
*42 uo_out[4]
*43 uo_out[5]
*44 uo_out[6]
*45 uo_out[7]
*46 _0000_
*47 _0001_
*48 _0002_
*49 _0003_
*50 _0004_
*51 _0005_
*52 _0006_
*53 _0007_
*54 _0008_
*55 _0009_
*56 _0010_
*57 _0011_
*58 _0012_
*59 _0013_
*60 _0014_
*61 _0015_
*62 _0016_
*63 _0017_
*64 _0018_
*65 _0019_
*66 _0020_
*67 _0021_
*68 _0022_
*69 _0023_
*70 _0024_
*71 _0025_
*72 _0026_
*73 _0027_
*74 _0028_
*75 _0029_
*76 _0030_
*77 _0031_
*78 _0032_
*79 _0033_
*80 _0034_
*81 _0035_
*82 _0036_
*83 _0037_
*84 _0038_
*85 _0039_
*86 _0040_
*87 _0041_
*88 _0042_
*89 _0043_
*90 _0044_
*91 _0045_
*92 _0046_
*93 _0047_
*94 _0048_
*95 _0049_
*96 _0050_
*97 _0051_
*98 _0052_
*99 _0053_
*100 _0054_
*101 _0055_
*102 _0056_
*103 _0057_
*104 _0058_
*105 _0059_
*106 _0060_
*107 _0061_
*108 _0062_
*109 _0063_
*110 _0064_
*111 _0065_
*112 _0066_
*113 _0067_
*114 _0068_
*115 _0069_
*116 _0070_
*117 _0071_
*118 _0072_
*119 _0073_
*120 _0074_
*121 _0075_
*122 _0076_
*123 _0077_
*124 _0078_
*125 _0079_
*126 _0080_
*127 _0081_
*128 _0082_
*129 _0083_
*130 _0084_
*131 _0085_
*132 _0086_
*133 _0087_
*134 _0088_
*135 _0089_
*136 _0090_
*137 _0091_
*138 _0092_
*139 _0093_
*140 _0094_
*141 _0095_
*142 _0096_
*143 _0097_
*144 _0098_
*145 _0099_
*146 _0100_
*147 _0101_
*148 _0102_
*149 _0103_
*150 _0104_
*151 _0105_
*152 _0106_
*153 _0107_
*154 _0108_
*155 _0109_
*156 _0110_
*157 _0111_
*158 _0112_
*159 _0113_
*160 _0114_
*161 _0115_
*162 _0116_
*163 _0117_
*164 _0118_
*165 _0119_
*166 _0120_
*167 _0121_
*168 _0122_
*169 _0123_
*170 _0124_
*171 _0125_
*172 _0126_
*173 _0127_
*174 _0128_
*175 _0129_
*176 _0130_
*177 _0131_
*178 _0132_
*179 _0133_
*180 _0134_
*181 _0135_
*182 _0136_
*183 _0137_
*184 _0138_
*185 _0139_
*186 _0140_
*187 _0141_
*188 _0142_
*189 _0143_
*190 _0144_
*191 _0145_
*192 _0146_
*193 _0147_
*194 _0148_
*195 _0149_
*196 _0150_
*197 _0151_
*198 _0152_
*199 _0153_
*200 _0154_
*201 _0155_
*202 _0156_
*203 _0157_
*204 _0158_
*205 _0159_
*206 _0160_
*207 _0161_
*208 _0162_
*209 _0163_
*210 _0164_
*211 _0165_
*212 _0166_
*213 _0167_
*214 _0168_
*215 _0169_
*216 _0170_
*217 _0171_
*218 _0172_
*219 _0173_
*220 _0174_
*221 _0175_
*222 _0176_
*223 _0177_
*224 _0178_
*225 _0179_
*226 _0180_
*227 _0181_
*228 _0182_
*229 _0183_
*230 _0184_
*231 _0185_
*232 _0186_
*233 _0187_
*234 _0188_
*235 _0189_
*236 _0190_
*237 _0191_
*238 _0192_
*239 _0193_
*240 _0194_
*241 _0195_
*242 _0196_
*243 _0197_
*244 _0198_
*245 _0199_
*246 _0200_
*247 _0201_
*248 _0202_
*249 _0203_
*250 _0204_
*251 _0205_
*252 _0206_
*253 _0207_
*254 _0208_
*255 _0209_
*256 _0210_
*257 _0211_
*258 _0212_
*259 _0213_
*260 _0214_
*261 _0215_
*262 _0216_
*263 _0217_
*264 _0218_
*265 _0219_
*266 _0220_
*267 _0221_
*268 _0222_
*269 _0223_
*270 _0224_
*271 _0225_
*272 _0226_
*273 _0227_
*274 _0228_
*275 _0229_
*276 _0230_
*277 _0231_
*278 _0232_
*279 _0233_
*280 _0234_
*281 _0235_
*282 _0236_
*283 _0237_
*284 _0238_
*285 _0239_
*286 _0240_
*287 _0241_
*288 _0242_
*289 _0243_
*290 _0244_
*291 _0245_
*292 _0246_
*293 _0247_
*294 _0248_
*295 _0249_
*296 _0250_
*297 _0251_
*298 _0252_
*299 _0253_
*300 _0254_
*301 _0255_
*302 _0256_
*303 _0257_
*304 _0258_
*305 _0259_
*306 _0260_
*307 _0261_
*308 _0262_
*309 _0263_
*310 _0264_
*311 _0265_
*312 _0266_
*313 _0267_
*314 _0268_
*315 _0269_
*316 _0270_
*317 _0271_
*318 _0272_
*319 _0273_
*320 _0274_
*321 _0275_
*322 _0276_
*323 _0277_
*324 _0278_
*325 _0279_
*326 _0280_
*327 _0281_
*328 _0282_
*329 _0283_
*330 _0284_
*331 _0285_
*332 _0286_
*333 _0287_
*334 _0288_
*335 _0289_
*336 _0290_
*337 _0291_
*338 _0292_
*339 _0293_
*340 _0294_
*341 _0295_
*342 _0296_
*343 _0297_
*344 _0298_
*345 _0299_
*346 _0300_
*347 _0301_
*348 _0302_
*349 _0303_
*350 _0304_
*351 _0305_
*352 _0306_
*353 _0307_
*354 _0308_
*355 _0309_
*356 _0310_
*357 _0311_
*358 _0312_
*359 _0313_
*360 _0314_
*361 _0315_
*362 _0316_
*363 _0317_
*364 _0318_
*365 _0319_
*366 _0320_
*367 _0321_
*368 _0322_
*369 _0323_
*370 _0324_
*371 _0325_
*372 _0326_
*373 _0327_
*374 _0328_
*375 _0329_
*376 _0330_
*377 _0331_
*378 _0332_
*379 _0333_
*380 _0334_
*381 _0335_
*382 _0336_
*383 _0337_
*384 _0338_
*385 _0339_
*386 _0340_
*387 _0341_
*388 _0342_
*389 _0343_
*390 _0344_
*391 _0345_
*392 _0346_
*393 _0347_
*394 _0348_
*395 _0349_
*396 _0350_
*397 _0351_
*398 _0352_
*399 _0353_
*400 _0354_
*401 _0355_
*402 _0356_
*403 _0357_
*404 _0358_
*405 _0359_
*406 _0360_
*407 _0361_
*408 _0362_
*409 _0363_
*410 _0364_
*411 _0365_
*412 _0366_
*413 _0367_
*414 _0368_
*415 _0369_
*416 _0370_
*417 _0371_
*418 _0372_
*419 _0373_
*420 _0374_
*421 _0375_
*422 _0376_
*423 _0377_
*424 _0378_
*425 _0379_
*426 _0380_
*427 _0381_
*428 _0382_
*429 _0383_
*430 _0384_
*431 _0385_
*432 _0386_
*433 _0387_
*434 _0388_
*435 _0389_
*436 _0390_
*437 _0391_
*438 _0392_
*439 _0393_
*440 _0394_
*441 _0395_
*442 _0396_
*443 _0397_
*444 _0398_
*445 _0399_
*446 _0400_
*447 _0401_
*448 _0402_
*449 _0403_
*450 _0404_
*451 _0405_
*452 _0406_
*453 _0407_
*454 _0408_
*455 _0409_
*456 _0410_
*457 _0411_
*458 _0412_
*459 _0413_
*460 _0414_
*461 _0415_
*462 _0416_
*463 _0417_
*464 _0418_
*465 _0419_
*466 _0420_
*467 _0421_
*468 _0422_
*469 _0423_
*470 _0424_
*471 _0425_
*472 _0426_
*473 _0427_
*474 _0428_
*475 _0429_
*476 _0430_
*477 _0431_
*478 _0432_
*479 _0433_
*480 _0434_
*481 _0435_
*482 _0436_
*483 _0437_
*484 _0438_
*485 _0439_
*486 _0440_
*487 _0441_
*488 _0442_
*489 _0443_
*490 _0444_
*491 _0445_
*492 _0446_
*493 _0447_
*494 _0448_
*495 _0449_
*496 _0450_
*497 _0451_
*498 _0452_
*499 _0453_
*500 _0454_
*501 _0455_
*502 _0456_
*503 _0457_
*504 _0458_
*505 _0459_
*506 _0460_
*507 _0461_
*508 _0462_
*509 _0463_
*510 _0464_
*511 _0465_
*512 _0466_
*513 _0467_
*514 _0468_
*515 _0469_
*516 _0470_
*517 _0471_
*518 _0472_
*519 _0473_
*520 _0474_
*521 _0475_
*522 _0476_
*523 _0477_
*524 _0478_
*525 _0479_
*526 _0480_
*527 _0481_
*528 _0482_
*529 _0483_
*530 _0484_
*531 _0485_
*532 _0486_
*533 _0487_
*534 _0488_
*535 _0489_
*536 _0490_
*537 _0491_
*538 _0492_
*539 _0493_
*540 _0494_
*541 _0495_
*542 _0496_
*543 _0497_
*544 _0498_
*545 _0499_
*546 _0500_
*547 _0501_
*548 _0502_
*549 _0503_
*550 _0504_
*551 _0505_
*552 _0506_
*553 _0507_
*554 _0508_
*555 _0509_
*556 _0510_
*557 _0511_
*558 _0512_
*559 _0513_
*560 _0514_
*561 _0515_
*562 _0516_
*563 _0517_
*564 _0518_
*565 _0519_
*566 _0520_
*567 _0521_
*568 _0522_
*569 _0523_
*570 _0524_
*571 _0525_
*572 _0526_
*573 _0527_
*574 _0528_
*575 _0529_
*576 _0530_
*577 _0531_
*578 _0532_
*579 _0533_
*580 _0534_
*581 _0535_
*582 _0536_
*583 _0537_
*584 _0538_
*585 _0539_
*586 _0540_
*587 _0541_
*588 _0542_
*589 _0543_
*590 _0544_
*591 _0545_
*592 _0546_
*593 _0547_
*594 _0548_
*595 _0549_
*596 _0550_
*597 _0551_
*598 _0552_
*599 _0553_
*600 _0554_
*601 _0555_
*602 _0556_
*603 _0557_
*604 _0558_
*605 _0559_
*606 _0560_
*607 _0561_
*608 _0562_
*609 _0563_
*610 _0564_
*611 _0565_
*612 _0566_
*613 _0567_
*614 _0568_
*615 _0569_
*616 _0570_
*617 _0571_
*618 _0572_
*619 _0573_
*620 _0574_
*621 _0575_
*622 _0576_
*623 _0577_
*624 _0578_
*625 _0579_
*626 _0580_
*627 _0581_
*628 _0582_
*629 _0583_
*630 _0584_
*631 _0585_
*632 _0586_
*633 _0587_
*634 _0588_
*635 _0589_
*636 _0590_
*637 _0591_
*638 _0592_
*639 _0593_
*640 _0594_
*641 _0595_
*642 _0596_
*643 _0597_
*644 _0598_
*645 _0599_
*646 _0600_
*647 _0601_
*648 _0602_
*649 _0603_
*650 _0604_
*651 _0605_
*652 _0606_
*653 _0607_
*654 _0608_
*655 _0609_
*656 _0610_
*657 _0611_
*658 _0612_
*659 _0613_
*660 _0614_
*661 _0615_
*662 _0616_
*663 _0617_
*664 _0618_
*665 _0619_
*666 _0620_
*667 _0621_
*668 _0622_
*669 _0623_
*670 _0624_
*671 _0625_
*672 _0626_
*673 _0627_
*674 _0628_
*675 _0629_
*676 _0630_
*677 _0631_
*678 _0632_
*679 _0633_
*680 _0634_
*681 _0635_
*682 _0636_
*683 _0637_
*684 _0638_
*685 _0639_
*686 _0640_
*687 _0641_
*688 _0642_
*689 _0643_
*690 _0644_
*691 _0645_
*692 _0646_
*693 _0647_
*694 _0648_
*695 _0649_
*696 _0650_
*697 _0651_
*698 _0652_
*699 _0653_
*700 _0654_
*701 _0655_
*702 _0656_
*703 _0657_
*704 _0658_
*705 _0659_
*706 _0660_
*707 _0661_
*708 _0662_
*709 _0663_
*710 _0664_
*711 _0665_
*712 _0666_
*713 _0667_
*714 _0668_
*715 _0669_
*716 _0670_
*717 _0671_
*718 _0672_
*719 _0673_
*720 _0674_
*721 _0675_
*722 _0676_
*723 _0677_
*724 _0678_
*725 _0679_
*726 _0680_
*727 _0681_
*728 _0682_
*729 _0683_
*730 _0684_
*731 _0685_
*732 _0686_
*733 _0687_
*734 _0688_
*735 _0689_
*736 _0690_
*737 _0691_
*738 _0692_
*739 _0693_
*740 _0694_
*741 _0695_
*742 _0696_
*743 _0697_
*744 _0698_
*745 _0699_
*746 _0700_
*747 _0701_
*748 _0702_
*749 _0703_
*750 _0704_
*751 _0705_
*752 _0706_
*753 _0707_
*754 _0708_
*755 _0709_
*756 _0710_
*757 _0711_
*758 _0712_
*759 _0713_
*760 _0714_
*761 _0715_
*762 _0716_
*763 _0717_
*764 _0718_
*765 _0719_
*766 _0720_
*767 _0721_
*768 _0722_
*769 _0723_
*770 _0724_
*771 _0725_
*772 _0726_
*773 _0727_
*774 _0728_
*775 _0729_
*776 _0730_
*777 _0731_
*778 _0732_
*779 _0733_
*780 _0734_
*781 _0735_
*782 _0736_
*783 _0737_
*784 _0738_
*785 _0739_
*786 _0740_
*787 _0741_
*788 _0742_
*789 _0743_
*790 _0744_
*791 _0745_
*792 _0746_
*793 _0747_
*794 _0748_
*795 _0749_
*796 _0750_
*797 _0751_
*798 _0752_
*799 _0753_
*800 _0754_
*801 _0755_
*802 _0756_
*803 _0757_
*804 _0758_
*805 _0759_
*806 _0760_
*807 _0761_
*808 _0762_
*809 _0763_
*810 _0764_
*811 _0765_
*812 _0766_
*813 _0767_
*814 _0768_
*815 _0769_
*816 _0770_
*817 _0771_
*818 _0772_
*819 _0773_
*820 _0774_
*821 _0775_
*822 _0776_
*823 _0777_
*824 _0778_
*825 _0779_
*826 _0780_
*827 _0781_
*828 _0782_
*829 _0783_
*830 _0784_
*831 _0785_
*832 _0786_
*833 _0787_
*834 _0788_
*835 _0789_
*836 _0790_
*837 _0791_
*838 _0792_
*839 _0793_
*840 _0794_
*841 _0795_
*842 _0796_
*843 _0797_
*844 _0798_
*845 _0799_
*846 _0800_
*847 _0801_
*848 _0802_
*849 _0803_
*850 _0804_
*851 _0805_
*852 _0806_
*853 _0807_
*854 _0808_
*855 _0809_
*856 _0810_
*857 _0811_
*858 _0812_
*859 _0813_
*860 _0814_
*861 _0815_
*862 _0816_
*863 _0817_
*864 _0818_
*865 _0819_
*866 _0820_
*867 _0821_
*868 _0822_
*869 _0823_
*870 _0824_
*871 _0825_
*872 _0826_
*873 _0827_
*874 _0828_
*875 _0829_
*876 _0830_
*877 _0831_
*878 _0832_
*879 _0833_
*880 _0834_
*881 _0835_
*882 _0836_
*883 _0837_
*884 _0838_
*885 _0839_
*886 _0840_
*887 _0841_
*888 _0842_
*889 _0843_
*890 _0844_
*891 _0845_
*892 _0846_
*893 _0847_
*894 _0848_
*895 _0849_
*896 _0850_
*897 _0851_
*898 _0852_
*899 _0853_
*900 _0854_
*901 _0855_
*902 _0856_
*903 _0857_
*904 _0858_
*905 _0859_
*906 _0860_
*907 _0861_
*908 _0862_
*909 _0863_
*910 _0864_
*911 _0865_
*912 _0866_
*913 _0867_
*914 _0868_
*915 _0869_
*916 _0870_
*917 _0871_
*918 _0872_
*919 _0873_
*920 _0874_
*921 _0875_
*922 _0876_
*923 _0877_
*924 _0878_
*925 _0879_
*926 _0880_
*927 _0881_
*928 _0882_
*929 _0883_
*930 _0884_
*931 _0885_
*932 _0886_
*933 _0887_
*934 _0888_
*935 _0889_
*936 _0890_
*937 _0891_
*938 _0892_
*939 _0893_
*940 _0894_
*941 _0895_
*942 _0896_
*943 _0897_
*944 _0898_
*945 _0899_
*946 _0900_
*947 _0901_
*948 _0902_
*949 _0903_
*950 _0904_
*951 _0905_
*952 _0906_
*953 _0907_
*954 _0908_
*955 _0909_
*956 _0910_
*957 _0911_
*958 _0912_
*959 _0913_
*960 _0914_
*961 _0915_
*962 _0916_
*963 _0917_
*964 _0918_
*965 _0919_
*966 _0920_
*967 _0921_
*968 _0922_
*969 _0923_
*970 _0924_
*971 _0925_
*972 _0926_
*973 _0927_
*974 _0928_
*975 _0929_
*976 _0930_
*977 _0931_
*978 _0932_
*979 _0933_
*980 _0934_
*981 _0935_
*982 _0936_
*983 _0937_
*984 _0938_
*985 _0939_
*986 _0940_
*987 _0941_
*988 _0942_
*989 _0943_
*990 _0944_
*991 _0945_
*992 _0946_
*993 _0947_
*994 _0948_
*995 _0949_
*996 _0950_
*997 _0951_
*998 _0952_
*999 _0953_
*1000 _0954_
*1001 _0955_
*1002 _0956_
*1003 _0957_
*1004 _0958_
*1005 _0959_
*1006 _0960_
*1007 _0961_
*1008 _0962_
*1009 _0963_
*1010 _0964_
*1011 _0965_
*1012 _0966_
*1013 _0967_
*1014 _0968_
*1015 _0969_
*1016 _0970_
*1017 _0971_
*1018 _0972_
*1019 _0973_
*1020 _0974_
*1021 _0975_
*1022 _0976_
*1023 _0977_
*1024 _0978_
*1025 _0979_
*1026 _0980_
*1027 _0981_
*1028 _0982_
*1029 _0983_
*1030 _0984_
*1031 _0985_
*1032 _0986_
*1033 _0987_
*1034 _0988_
*1035 _0989_
*1036 _0990_
*1037 _0991_
*1038 _0992_
*1039 _0993_
*1040 _0994_
*1041 _0995_
*1042 _0996_
*1043 _0997_
*1044 _0998_
*1045 _0999_
*1046 _1000_
*1047 _1001_
*1048 _1002_
*1049 _1003_
*1050 _1004_
*1051 _1005_
*1052 _1006_
*1053 _1007_
*1054 _1008_
*1055 _1009_
*1056 _1010_
*1057 _1011_
*1058 _1012_
*1059 _1013_
*1060 _1014_
*1061 _1015_
*1062 _1016_
*1063 _1017_
*1064 _1018_
*1065 _1019_
*1066 _1020_
*1067 _1021_
*1068 _1022_
*1069 _1023_
*1070 _1024_
*1071 _1025_
*1072 _1026_
*1073 _1027_
*1074 _1028_
*1075 _1029_
*1076 _1030_
*1077 _1031_
*1078 _1032_
*1079 _1033_
*1080 _1034_
*1081 _1035_
*1082 _1036_
*1083 _1037_
*1084 _1038_
*1085 _1039_
*1086 _1040_
*1087 _1041_
*1088 _1042_
*1089 _1043_
*1090 _1044_
*1091 _1045_
*1092 _1046_
*1093 _1047_
*1094 _1048_
*1095 _1049_
*1096 _1050_
*1097 _1051_
*1098 _1052_
*1099 _1053_
*1100 _1054_
*1101 _1055_
*1102 _1056_
*1103 _1057_
*1104 _1058_
*1105 _1059_
*1106 _1060_
*1107 _1061_
*1108 _1062_
*1109 _1063_
*1110 _1064_
*1111 _1065_
*1112 _1066_
*1113 _1067_
*1114 _1068_
*1115 _1069_
*1116 _1070_
*1117 _1071_
*1118 _1072_
*1119 _1073_
*1120 _1074_
*1121 _1075_
*1122 _1076_
*1123 _1077_
*1124 _1078_
*1125 _1079_
*1126 _1080_
*1127 _1081_
*1128 _1082_
*1129 _1083_
*1130 _1084_
*1131 _1085_
*1132 _1086_
*1133 _1087_
*1134 _1088_
*1135 _1089_
*1136 _1090_
*1137 _1091_
*1138 _1092_
*1139 _1093_
*1140 _1094_
*1141 _1095_
*1142 _1096_
*1143 _1097_
*1144 _1098_
*1145 _1099_
*1146 _1100_
*1147 _1101_
*1148 _1102_
*1149 _1103_
*1150 _1104_
*1151 _1105_
*1152 _1106_
*1153 _1107_
*1154 _1108_
*1155 _1109_
*1156 _1110_
*1157 _1111_
*1158 _1112_
*1159 _1113_
*1160 _1114_
*1161 _1115_
*1162 _1116_
*1163 _1117_
*1164 _1118_
*1165 _1119_
*1166 _1120_
*1167 _1121_
*1168 breakout\.ball_painter\.ball_x\[0\]
*1169 breakout\.ball_painter\.ball_x\[1\]
*1170 breakout\.ball_painter\.ball_x\[2\]
*1171 breakout\.ball_painter\.ball_y\[0\]
*1172 breakout\.ball_painter\.ball_y\[1\]
*1173 breakout\.ball_painter\.ball_y\[2\]
*1174 breakout\.ball_painter\.gt_x0
*1175 breakout\.ball_painter\.gt_y0
*1176 breakout\.ball_painter\.hpos\[0\]
*1177 breakout\.ball_painter\.hpos\[1\]
*1178 breakout\.ball_painter\.hpos\[2\]
*1179 breakout\.ball_painter\.hpos\[3\]
*1180 breakout\.ball_painter\.hpos\[4\]
*1181 breakout\.ball_painter\.hpos\[5\]
*1182 breakout\.ball_painter\.hpos\[6\]
*1183 breakout\.ball_painter\.hpos\[7\]
*1184 breakout\.ball_painter\.hpos\[8\]
*1185 breakout\.ball_painter\.hpos\[9\]
*1186 breakout\.ball_painter\.line_pulse
*1187 breakout\.ball_painter\.vpos\[0\]
*1188 breakout\.ball_painter\.vpos\[1\]
*1189 breakout\.ball_painter\.vpos\[2\]
*1190 breakout\.ball_painter\.vpos\[3\]
*1191 breakout\.ball_painter\.vpos\[4\]
*1192 breakout\.ball_painter\.vpos\[5\]
*1193 breakout\.ball_painter\.vpos\[6\]
*1194 breakout\.ball_painter\.vpos\[7\]
*1195 breakout\.ball_painter\.vpos\[8\]
*1196 breakout\.ball_painter\.x\[0\]
*1197 breakout\.ball_painter\.x\[1\]
*1198 breakout\.ball_painter\.x\[2\]
*1199 breakout\.ball_painter\.x\[3\]
*1200 breakout\.ball_painter\.x\[4\]
*1201 breakout\.ball_painter\.x\[5\]
*1202 breakout\.ball_painter\.x\[6\]
*1203 breakout\.ball_painter\.x\[7\]
*1204 breakout\.ball_painter\.x\[8\]
*1205 breakout\.ball_painter\.x\[9\]
*1206 breakout\.ball_painter\.y\[0\]
*1207 breakout\.ball_painter\.y\[1\]
*1208 breakout\.ball_painter\.y\[2\]
*1209 breakout\.ball_painter\.y\[3\]
*1210 breakout\.ball_painter\.y\[4\]
*1211 breakout\.ball_painter\.y\[5\]
*1212 breakout\.ball_painter\.y\[6\]
*1213 breakout\.ball_painter\.y\[7\]
*1214 breakout\.ball_painter\.y\[8\]
*1215 breakout\.block_line_state\[0\]
*1216 breakout\.block_line_state\[10\]
*1217 breakout\.block_line_state\[11\]
*1218 breakout\.block_line_state\[12\]
*1219 breakout\.block_line_state\[1\]
*1220 breakout\.block_line_state\[2\]
*1221 breakout\.block_line_state\[3\]
*1222 breakout\.block_line_state\[4\]
*1223 breakout\.block_line_state\[5\]
*1224 breakout\.block_line_state\[6\]
*1225 breakout\.block_line_state\[7\]
*1226 breakout\.block_line_state\[8\]
*1227 breakout\.block_line_state\[9\]
*1228 breakout\.block_state\.state\[100\]
*1229 breakout\.block_state\.state\[101\]
*1230 breakout\.block_state\.state\[102\]
*1231 breakout\.block_state\.state\[103\]
*1232 breakout\.block_state\.state\[104\]
*1233 breakout\.block_state\.state\[105\]
*1234 breakout\.block_state\.state\[106\]
*1235 breakout\.block_state\.state\[107\]
*1236 breakout\.block_state\.state\[108\]
*1237 breakout\.block_state\.state\[109\]
*1238 breakout\.block_state\.state\[110\]
*1239 breakout\.block_state\.state\[111\]
*1240 breakout\.block_state\.state\[112\]
*1241 breakout\.block_state\.state\[113\]
*1242 breakout\.block_state\.state\[114\]
*1243 breakout\.block_state\.state\[115\]
*1244 breakout\.block_state\.state\[116\]
*1245 breakout\.block_state\.state\[117\]
*1246 breakout\.block_state\.state\[118\]
*1247 breakout\.block_state\.state\[119\]
*1248 breakout\.block_state\.state\[120\]
*1249 breakout\.block_state\.state\[121\]
*1250 breakout\.block_state\.state\[122\]
*1251 breakout\.block_state\.state\[123\]
*1252 breakout\.block_state\.state\[124\]
*1253 breakout\.block_state\.state\[125\]
*1254 breakout\.block_state\.state\[126\]
*1255 breakout\.block_state\.state\[127\]
*1256 breakout\.block_state\.state\[128\]
*1257 breakout\.block_state\.state\[129\]
*1258 breakout\.block_state\.state\[130\]
*1259 breakout\.block_state\.state\[131\]
*1260 breakout\.block_state\.state\[132\]
*1261 breakout\.block_state\.state\[133\]
*1262 breakout\.block_state\.state\[134\]
*1263 breakout\.block_state\.state\[135\]
*1264 breakout\.block_state\.state\[136\]
*1265 breakout\.block_state\.state\[137\]
*1266 breakout\.block_state\.state\[138\]
*1267 breakout\.block_state\.state\[139\]
*1268 breakout\.block_state\.state\[13\]
*1269 breakout\.block_state\.state\[140\]
*1270 breakout\.block_state\.state\[141\]
*1271 breakout\.block_state\.state\[142\]
*1272 breakout\.block_state\.state\[143\]
*1273 breakout\.block_state\.state\[144\]
*1274 breakout\.block_state\.state\[145\]
*1275 breakout\.block_state\.state\[146\]
*1276 breakout\.block_state\.state\[147\]
*1277 breakout\.block_state\.state\[148\]
*1278 breakout\.block_state\.state\[149\]
*1279 breakout\.block_state\.state\[14\]
*1280 breakout\.block_state\.state\[150\]
*1281 breakout\.block_state\.state\[151\]
*1282 breakout\.block_state\.state\[152\]
*1283 breakout\.block_state\.state\[153\]
*1284 breakout\.block_state\.state\[154\]
*1285 breakout\.block_state\.state\[155\]
*1286 breakout\.block_state\.state\[156\]
*1287 breakout\.block_state\.state\[157\]
*1288 breakout\.block_state\.state\[158\]
*1289 breakout\.block_state\.state\[159\]
*1290 breakout\.block_state\.state\[15\]
*1291 breakout\.block_state\.state\[160\]
*1292 breakout\.block_state\.state\[161\]
*1293 breakout\.block_state\.state\[162\]
*1294 breakout\.block_state\.state\[163\]
*1295 breakout\.block_state\.state\[164\]
*1296 breakout\.block_state\.state\[165\]
*1297 breakout\.block_state\.state\[166\]
*1298 breakout\.block_state\.state\[167\]
*1299 breakout\.block_state\.state\[168\]
*1300 breakout\.block_state\.state\[169\]
*1301 breakout\.block_state\.state\[16\]
*1302 breakout\.block_state\.state\[170\]
*1303 breakout\.block_state\.state\[171\]
*1304 breakout\.block_state\.state\[172\]
*1305 breakout\.block_state\.state\[173\]
*1306 breakout\.block_state\.state\[174\]
*1307 breakout\.block_state\.state\[175\]
*1308 breakout\.block_state\.state\[176\]
*1309 breakout\.block_state\.state\[177\]
*1310 breakout\.block_state\.state\[178\]
*1311 breakout\.block_state\.state\[179\]
*1312 breakout\.block_state\.state\[17\]
*1313 breakout\.block_state\.state\[180\]
*1314 breakout\.block_state\.state\[181\]
*1315 breakout\.block_state\.state\[182\]
*1316 breakout\.block_state\.state\[183\]
*1317 breakout\.block_state\.state\[184\]
*1318 breakout\.block_state\.state\[185\]
*1319 breakout\.block_state\.state\[186\]
*1320 breakout\.block_state\.state\[187\]
*1321 breakout\.block_state\.state\[188\]
*1322 breakout\.block_state\.state\[189\]
*1323 breakout\.block_state\.state\[18\]
*1324 breakout\.block_state\.state\[190\]
*1325 breakout\.block_state\.state\[191\]
*1326 breakout\.block_state\.state\[192\]
*1327 breakout\.block_state\.state\[193\]
*1328 breakout\.block_state\.state\[194\]
*1329 breakout\.block_state\.state\[19\]
*1330 breakout\.block_state\.state\[20\]
*1331 breakout\.block_state\.state\[21\]
*1332 breakout\.block_state\.state\[22\]
*1333 breakout\.block_state\.state\[23\]
*1334 breakout\.block_state\.state\[24\]
*1335 breakout\.block_state\.state\[25\]
*1336 breakout\.block_state\.state\[26\]
*1337 breakout\.block_state\.state\[27\]
*1338 breakout\.block_state\.state\[28\]
*1339 breakout\.block_state\.state\[29\]
*1340 breakout\.block_state\.state\[30\]
*1341 breakout\.block_state\.state\[31\]
*1342 breakout\.block_state\.state\[32\]
*1343 breakout\.block_state\.state\[33\]
*1344 breakout\.block_state\.state\[34\]
*1345 breakout\.block_state\.state\[35\]
*1346 breakout\.block_state\.state\[36\]
*1347 breakout\.block_state\.state\[37\]
*1348 breakout\.block_state\.state\[38\]
*1349 breakout\.block_state\.state\[39\]
*1350 breakout\.block_state\.state\[40\]
*1351 breakout\.block_state\.state\[41\]
*1352 breakout\.block_state\.state\[42\]
*1353 breakout\.block_state\.state\[43\]
*1354 breakout\.block_state\.state\[44\]
*1355 breakout\.block_state\.state\[45\]
*1356 breakout\.block_state\.state\[46\]
*1357 breakout\.block_state\.state\[47\]
*1358 breakout\.block_state\.state\[48\]
*1359 breakout\.block_state\.state\[49\]
*1360 breakout\.block_state\.state\[50\]
*1361 breakout\.block_state\.state\[51\]
*1362 breakout\.block_state\.state\[52\]
*1363 breakout\.block_state\.state\[53\]
*1364 breakout\.block_state\.state\[54\]
*1365 breakout\.block_state\.state\[55\]
*1366 breakout\.block_state\.state\[56\]
*1367 breakout\.block_state\.state\[57\]
*1368 breakout\.block_state\.state\[58\]
*1369 breakout\.block_state\.state\[59\]
*1370 breakout\.block_state\.state\[60\]
*1371 breakout\.block_state\.state\[61\]
*1372 breakout\.block_state\.state\[62\]
*1373 breakout\.block_state\.state\[63\]
*1374 breakout\.block_state\.state\[64\]
*1375 breakout\.block_state\.state\[65\]
*1376 breakout\.block_state\.state\[66\]
*1377 breakout\.block_state\.state\[67\]
*1378 breakout\.block_state\.state\[68\]
*1379 breakout\.block_state\.state\[69\]
*1380 breakout\.block_state\.state\[70\]
*1381 breakout\.block_state\.state\[71\]
*1382 breakout\.block_state\.state\[72\]
*1383 breakout\.block_state\.state\[73\]
*1384 breakout\.block_state\.state\[74\]
*1385 breakout\.block_state\.state\[75\]
*1386 breakout\.block_state\.state\[76\]
*1387 breakout\.block_state\.state\[77\]
*1388 breakout\.block_state\.state\[78\]
*1389 breakout\.block_state\.state\[79\]
*1390 breakout\.block_state\.state\[80\]
*1391 breakout\.block_state\.state\[81\]
*1392 breakout\.block_state\.state\[82\]
*1393 breakout\.block_state\.state\[83\]
*1394 breakout\.block_state\.state\[84\]
*1395 breakout\.block_state\.state\[85\]
*1396 breakout\.block_state\.state\[86\]
*1397 breakout\.block_state\.state\[87\]
*1398 breakout\.block_state\.state\[88\]
*1399 breakout\.block_state\.state\[89\]
*1400 breakout\.block_state\.state\[90\]
*1401 breakout\.block_state\.state\[91\]
*1402 breakout\.block_state\.state\[92\]
*1403 breakout\.block_state\.state\[93\]
*1404 breakout\.block_state\.state\[94\]
*1405 breakout\.block_state\.state\[95\]
*1406 breakout\.block_state\.state\[96\]
*1407 breakout\.block_state\.state\[97\]
*1408 breakout\.block_state\.state\[98\]
*1409 breakout\.block_state\.state\[99\]
*1410 breakout\.blocks_painter\.at_end_of_line
*1411 breakout\.blocks_painter\.at_end_of_line_d1
*1412 breakout\.blocks_painter\.at_end_of_line_d2
*1413 breakout\.blocks_painter\.block_offset_idx\[0\]
*1414 breakout\.blocks_painter\.block_offset_idx\[1\]
*1415 breakout\.blocks_painter\.block_offset_idx\[2\]
*1416 breakout\.blocks_painter\.block_offset_idx\[3\]
*1417 breakout\.blocks_painter\.block_x_cnt\[0\]
*1418 breakout\.blocks_painter\.block_x_cnt\[1\]
*1419 breakout\.blocks_painter\.block_x_cnt\[2\]
*1420 breakout\.blocks_painter\.block_x_cnt\[3\]
*1421 breakout\.blocks_painter\.block_x_cnt\[4\]
*1422 breakout\.blocks_painter\.block_x_cnt\[5\]
*1423 breakout\.blocks_painter\.block_y_cnt\[0\]
*1424 breakout\.blocks_painter\.block_y_cnt\[1\]
*1425 breakout\.blocks_painter\.block_y_cnt\[2\]
*1426 breakout\.blocks_painter\.block_y_cnt\[3\]
*1427 breakout\.blocks_painter\.block_y_cnt\[4\]
*1428 breakout\.blocks_painter\.first_time_reset
*1429 breakout\.blocks_painter\.in_horizontal_block_region
*1430 breakout\.blocks_painter\.in_vertical_block_region
*1431 breakout\.blocks_painter\.new_block_line_state\[0\]
*1432 breakout\.blocks_painter\.new_block_line_state\[10\]
*1433 breakout\.blocks_painter\.new_block_line_state\[11\]
*1434 breakout\.blocks_painter\.new_block_line_state\[12\]
*1435 breakout\.blocks_painter\.new_block_line_state\[1\]
*1436 breakout\.blocks_painter\.new_block_line_state\[2\]
*1437 breakout\.blocks_painter\.new_block_line_state\[3\]
*1438 breakout\.blocks_painter\.new_block_line_state\[4\]
*1439 breakout\.blocks_painter\.new_block_line_state\[5\]
*1440 breakout\.blocks_painter\.new_block_line_state\[6\]
*1441 breakout\.blocks_painter\.new_block_line_state\[7\]
*1442 breakout\.blocks_painter\.new_block_line_state\[8\]
*1443 breakout\.blocks_painter\.new_block_line_state\[9\]
*1444 breakout\.btn_left
*1445 breakout\.btn_left_sync\.reg1
*1446 breakout\.btn_right
*1447 breakout\.btn_right_sync\.reg1
*1448 breakout\.btn_select
*1449 breakout\.btn_select_sync\.reg1
*1450 breakout\.game_logic\.ball_state_x\[0\]
*1451 breakout\.game_logic\.ball_state_y\[0\]
*1452 breakout\.game_logic\.ball_state_y\[10\]
*1453 breakout\.game_logic\.game_state
*1454 breakout\.game_logic\.latched_ball_block_collision
*1455 breakout\.game_logic\.latched_ball_bottom_collision
*1456 breakout\.game_logic\.latched_ball_left_collision
*1457 breakout\.game_logic\.latched_ball_right_collision
*1458 breakout\.game_logic\.latched_ball_top_collision
*1459 breakout\.game_logic\.latched_paddle_collision
*1460 breakout\.game_logic\.latched_paddle_segment\[0\]
*1461 breakout\.game_logic\.latched_paddle_segment\[1\]
*1462 breakout\.game_logic\.latched_paddle_segment\[2\]
*1463 breakout\.game_logic\.lives\[0\]
*1464 breakout\.game_logic\.lives\[1\]
*1465 breakout\.game_logic\.next_velocity_x\[0\]
*1466 breakout\.game_logic\.next_velocity_x\[1\]
*1467 breakout\.game_logic\.next_velocity_x\[2\]
*1468 breakout\.game_logic\.next_velocity_x\[3\]
*1469 breakout\.game_logic\.paddle_segment\[0\]
*1470 breakout\.game_logic\.paddle_segment\[1\]
*1471 breakout\.game_logic\.paddle_segment\[2\]
*1472 breakout\.game_logic\.paddle_state_x\[0\]
*1473 breakout\.game_logic\.paddle_state_x\[1\]
*1474 breakout\.game_logic\.paddle_state_x\[2\]
*1475 breakout\.game_logic\.paddle_state_x\[3\]
*1476 breakout\.game_logic\.paddle_state_x\[4\]
*1477 breakout\.game_logic\.paddle_state_x\[5\]
*1478 breakout\.game_logic\.paddle_state_x\[6\]
*1479 breakout\.game_logic\.paddle_state_x\[7\]
*1480 breakout\.game_logic\.paddle_state_x\[8\]
*1481 breakout\.game_logic\.paddle_state_x\[9\]
*1482 breakout\.game_logic\.velocity_x\[0\]
*1483 breakout\.game_logic\.velocity_x\[1\]
*1484 breakout\.game_logic\.velocity_x\[2\]
*1485 breakout\.game_logic\.velocity_x\[3\]
*1486 breakout\.game_logic\.velocity_y\[0\]
*1487 breakout\.game_logic\.velocity_y\[1\]
*1488 breakout\.game_logic\.velocity_y\[2\]
*1489 breakout\.game_logic\.velocity_y\[3\]
*1490 breakout\.hblank
*1491 breakout\.lives_painter\.hactive
*1492 breakout\.lives_painter\.in_lives_row
*1493 breakout\.lives_painter\.in_lives_y
*1494 breakout\.lives_painter\.lives_cntr\[0\]
*1495 breakout\.lives_painter\.lives_cntr\[1\]
*1496 breakout\.lives_painter\.lives_x\[0\]
*1497 breakout\.lives_painter\.lives_x\[1\]
*1498 breakout\.lives_painter\.lives_x\[2\]
*1499 breakout\.lives_painter\.lives_x\[3\]
*1500 breakout\.lives_painter\.lives_x\[4\]
*1501 breakout\.miso
*1502 breakout\.miso_en
*1503 breakout\.mosi
*1504 breakout\.mosi_sync\.reg1
*1505 breakout\.paddle_painter\.in_paddle_x
*1506 breakout\.paddle_painter\.in_paddle_y
*1507 breakout\.paddle_painter\.paddle_segment_x\[0\]
*1508 breakout\.paddle_painter\.paddle_segment_x\[1\]
*1509 breakout\.paddle_painter\.paddle_segment_x\[2\]
*1510 breakout\.sck
*1511 breakout\.sck_sync\.reg1
*1512 breakout\.sound_gen\.high_beep_wave
*1513 breakout\.sound_gen\.high_counter\[0\]
*1514 breakout\.sound_gen\.high_counter\[1\]
*1515 breakout\.sound_gen\.high_counter\[2\]
*1516 breakout\.sound_gen\.high_en
*1517 breakout\.sound_gen\.low_beep_wave
*1518 breakout\.sound_gen\.low_counter\[0\]
*1519 breakout\.sound_gen\.low_counter\[1\]
*1520 breakout\.sound_gen\.low_counter\[2\]
*1521 breakout\.sound_gen\.low_en
*1522 breakout\.sound_gen\.sound
*1523 breakout\.sound_gen\.sound_counter\[0\]
*1524 breakout\.sound_gen\.sound_counter\[1\]
*1525 breakout\.sound_gen\.sound_counter\[2\]
*1526 breakout\.sound_gen\.sound_counter\[3\]
*1527 breakout\.spi_ctrl\.cmd_code\[0\]
*1528 breakout\.spi_ctrl\.cmd_code\[1\]
*1529 breakout\.spi_ctrl\.line\[10\]
*1530 breakout\.spi_ctrl\.line\[11\]
*1531 breakout\.spi_ctrl\.line\[12\]
*1532 breakout\.spi_ctrl\.line\[2\]
*1533 breakout\.spi_ctrl\.line\[3\]