*SPEF "ieee 1481-1999"
*DESIGN "tt_um_mod_u_cnt_BCD"
*DATE "11:11:11 Fri 11 11, 1111"
*VENDOR "OpenRCX"
*PROGRAM "Parallel Extraction"
*VERSION "1.0"
*DESIGN_FLOW "NAME_SCOPE LOCAL" "PIN_CAP NONE"
*DIVIDER /
*DELIMITER :
*BUS_DELIMITER []
*T_UNIT 1 NS
*C_UNIT 1 PF
*R_UNIT 1 OHM
*L_UNIT 1 HENRY

*NAME_MAP
*3 clk
*4 ena
*5 rst_n
*6 ui_in[0]
*7 ui_in[1]
*8 ui_in[2]
*9 ui_in[3]
*10 ui_in[4]
*11 ui_in[5]
*12 ui_in[6]
*13 ui_in[7]
*14 uio_in[0]
*15 uio_in[1]
*16 uio_in[2]
*17 uio_in[3]
*18 uio_in[4]
*19 uio_in[5]
*20 uio_in[6]
*21 uio_in[7]
*22 net23
*23 net24
*24 net25
*25 net26
*26 net27
*27 net28
*28 net29
*29 net30
*30 net14
*31 net15
*32 net16
*33 net17
*34 net18
*35 net19
*36 net20
*37 net21
*38 uo_out[0]
*39 uo_out[1]
*40 uo_out[2]
*41 uo_out[3]
*42 uo_out[4]
*43 uo_out[5]
*44 uo_out[6]
*45 net22
*46 _000_
*47 _001_
*48 _002_
*49 _003_
*50 _004_
*51 _005_
*52 _006_
*53 _007_
*54 _008_
*55 _009_
*56 _010_
*57 _011_
*58 _012_
*59 _013_
*60 _014_
*61 _015_
*62 _016_
*63 _017_
*64 _018_
*65 _019_
*66 _020_
*67 _021_
*68 _022_
*69 _023_
*70 _024_
*71 _025_
*72 _026_
*73 _027_
*74 _028_
*75 _029_
*76 _030_
*77 _031_
*78 _032_
*79 _033_
*80 _034_
*81 _035_
*82 _036_
*83 _037_
*84 _038_
*85 _039_
*86 _040_
*87 _041_
*88 _042_
*89 _043_
*90 _044_
*91 _045_
*92 _046_
*93 _047_
*94 _048_
*95 _049_
*96 _050_
*97 _051_
*98 _052_
*99 _053_
*100 _054_
*101 _055_
*102 _056_
*103 _057_
*104 _058_
*105 _059_
*106 _060_
*107 _061_
*108 _062_
*109 _063_
*110 _064_
*111 _065_
*112 _066_
*113 _067_
*114 _068_
*115 _069_
*116 _070_
*117 _071_
*118 _072_
*119 _073_
*120 _074_
*121 _075_
*122 _076_
*123 _077_
*124 _078_
*125 _079_
*126 _080_
*127 _081_
*128 _082_
*129 _083_
*130 _084_
*131 _085_
*132 _086_
*133 _087_
*134 clknet_0_clk
*135 clknet_1_0__leaf_clk
*136 clknet_1_1__leaf_clk
*137 contador_inst\.clk
*138 contador_inst\.count\[0\]
*139 contador_inst\.count\[1\]
*140 contador_inst\.count\[2\]
*141 contador_inst\.count\[3\]
*142 freq_div_inst\.clk_out_s
*143 freq_div_inst\.count\[0\]
*144 freq_div_inst\.count\[10\]
*145 freq_div_inst\.count\[11\]
*146 freq_div_inst\.count\[12\]
*147 freq_div_inst\.count\[13\]
*148 freq_div_inst\.count\[14\]
*149 freq_div_inst\.count\[15\]
*150 freq_div_inst\.count\[16\]
*151 freq_div_inst\.count\[17\]
*152 freq_div_inst\.count\[18\]
*153 freq_div_inst\.count\[19\]
*154 freq_div_inst\.count\[1\]
*155 freq_div_inst\.count\[20\]
*156 freq_div_inst\.count\[21\]
*157 freq_div_inst\.count\[22\]
*158 freq_div_inst\.count\[23\]
*159 freq_div_inst\.count\[2\]
*160 freq_div_inst\.count\[3\]
*161 freq_div_inst\.count\[4\]
*162 freq_div_inst\.count\[5\]
*163 freq_div_inst\.count\[6\]
*164 freq_div_inst\.count\[7\]
*165 freq_div_inst\.count\[8\]
*166 freq_div_inst\.count\[9\]
*167 freq_div_inst\.val_next\[0\]
*168 freq_div_inst\.val_next\[10\]
*169 freq_div_inst\.val_next\[11\]
*170 freq_div_inst\.val_next\[12\]
*171 freq_div_inst\.val_next\[13\]
*172 freq_div_inst\.val_next\[14\]
*173 freq_div_inst\.val_next\[15\]
*174 freq_div_inst\.val_next\[16\]
*175 freq_div_inst\.val_next\[17\]
*176 freq_div_inst\.val_next\[18\]
*177 freq_div_inst\.val_next\[19\]
*178 freq_div_inst\.val_next\[1\]
*179 freq_div_inst\.val_next\[20\]
*180 freq_div_inst\.val_next\[21\]
*181 freq_div_inst\.val_next\[22\]
*182 freq_div_inst\.val_next\[23\]
*183 freq_div_inst\.val_next\[2\]
*184 freq_div_inst\.val_next\[3\]
*185 freq_div_inst\.val_next\[4\]
*186 freq_div_inst\.val_next\[5\]
*187 freq_div_inst\.val_next\[6\]
*188 freq_div_inst\.val_next\[7\]
*189 freq_div_inst\.val_next\[8\]
*190 freq_div_inst\.val_next\[9\]
*191 net1
*192 net10
*193 net11
*194 net12
*195 net13
*196 net2
*197 net3
*198 net31
*199 net32
*200 net33
*201 net34
*202 net35
*203 net36
*204 net37
*205 net38
*206 net39
*207 net4
*208 net40
*209 net41
*210 net42
*211 net43
*212 net44
*213 net45
*214 net46
*215 net47
*216 net48
*217 net49
*218 net5
*219 net50
*220 net51
*221 net6
*222 net7
*223 net8
*224 net9
*225 FILLER_0_0_109
*226 FILLER_0_0_113
*227 FILLER_0_0_125
*228 FILLER_0_0_137
*229 FILLER_0_0_141
*230 FILLER_0_0_15
*231 FILLER_0_0_153
*232 FILLER_0_0_165
*233 FILLER_0_0_169
*234 FILLER_0_0_181
*235 FILLER_0_0_193
*236 FILLER_0_0_197
*237 FILLER_0_0_209
*238 FILLER_0_0_221
*239 FILLER_0_0_225
*240 FILLER_0_0_237
*241 FILLER_0_0_249
*242 FILLER_0_0_253
*243 FILLER_0_0_265
*244 FILLER_0_0_27
*245 FILLER_0_0_277
*246 FILLER_0_0_281
*247 FILLER_0_0_29
*248 FILLER_0_0_293
*249 FILLER_0_0_3
*250 FILLER_0_0_305
*251 FILLER_0_0_309
*252 FILLER_0_0_321
*253 FILLER_0_0_333
*254 FILLER_0_0_337
*255 FILLER_0_0_349
*256 FILLER_0_0_41
*257 FILLER_0_0_53
*258 FILLER_0_0_57
*259 FILLER_0_0_69
*260 FILLER_0_0_81
*261 FILLER_0_0_85
*262 FILLER_0_0_97
*263 FILLER_0_10_109
*264 FILLER_0_10_121
*265 FILLER_0_10_133
*266 FILLER_0_10_139
*267 FILLER_0_10_141
*268 FILLER_0_10_15
*269 FILLER_0_10_153
*270 FILLER_0_10_165
*271 FILLER_0_10_177
*272 FILLER_0_10_189
*273 FILLER_0_10_195
*274 FILLER_0_10_197
*275 FILLER_0_10_209
*276 FILLER_0_10_221
*277 FILLER_0_10_233
*278 FILLER_0_10_245
*279 FILLER_0_10_251
*280 FILLER_0_10_253
*281 FILLER_0_10_265
*282 FILLER_0_10_27
*283 FILLER_0_10_277
*284 FILLER_0_10_289
*285 FILLER_0_10_29
*286 FILLER_0_10_3
*287 FILLER_0_10_301
*288 FILLER_0_10_307
*289 FILLER_0_10_309
*290 FILLER_0_10_321
*291 FILLER_0_10_333
*292 FILLER_0_10_345
*293 FILLER_0_10_41
*294 FILLER_0_10_53
*295 FILLER_0_10_65
*296 FILLER_0_10_77
*297 FILLER_0_10_83
*298 FILLER_0_10_85
*299 FILLER_0_10_97
*300 FILLER_0_11_105
*301 FILLER_0_11_111
*302 FILLER_0_11_113
*303 FILLER_0_11_125
*304 FILLER_0_11_137
*305 FILLER_0_11_149
*306 FILLER_0_11_15
*307 FILLER_0_11_161
*308 FILLER_0_11_167
*309 FILLER_0_11_169
*310 FILLER_0_11_181
*311 FILLER_0_11_193
*312 FILLER_0_11_205
*313 FILLER_0_11_217
*314 FILLER_0_11_223
*315 FILLER_0_11_225
*316 FILLER_0_11_237
*317 FILLER_0_11_249
*318 FILLER_0_11_261
*319 FILLER_0_11_27
*320 FILLER_0_11_273
*321 FILLER_0_11_279
*322 FILLER_0_11_281
*323 FILLER_0_11_293
*324 FILLER_0_11_3
*325 FILLER_0_11_305
*326 FILLER_0_11_317
*327 FILLER_0_11_329
*328 FILLER_0_11_335
*329 FILLER_0_11_337
*330 FILLER_0_11_349
*331 FILLER_0_11_39
*332 FILLER_0_11_51
*333 FILLER_0_11_55
*334 FILLER_0_11_57
*335 FILLER_0_11_69
*336 FILLER_0_11_81
*337 FILLER_0_11_93
*338 FILLER_0_12_109
*339 FILLER_0_12_121
*340 FILLER_0_12_133
*341 FILLER_0_12_139
*342 FILLER_0_12_141
*343 FILLER_0_12_15
*344 FILLER_0_12_153
*345 FILLER_0_12_165
*346 FILLER_0_12_177
*347 FILLER_0_12_189
*348 FILLER_0_12_195
*349 FILLER_0_12_197
*350 FILLER_0_12_209
*351 FILLER_0_12_221
*352 FILLER_0_12_233
*353 FILLER_0_12_245
*354 FILLER_0_12_251
*355 FILLER_0_12_253
*356 FILLER_0_12_265
*357 FILLER_0_12_27
*358 FILLER_0_12_277
*359 FILLER_0_12_289
*360 FILLER_0_12_29
*361 FILLER_0_12_3
*362 FILLER_0_12_301
*363 FILLER_0_12_307
*364 FILLER_0_12_309
*365 FILLER_0_12_321
*366 FILLER_0_12_333
*367 FILLER_0_12_345
*368 FILLER_0_12_41
*369 FILLER_0_12_53
*370 FILLER_0_12_65
*371 FILLER_0_12_77
*372 FILLER_0_12_83
*373 FILLER_0_12_85
*374 FILLER_0_12_97
*375 FILLER_0_13_105
*376 FILLER_0_13_111
*377 FILLER_0_13_113
*378 FILLER_0_13_125
*379 FILLER_0_13_137
*380 FILLER_0_13_149
*381 FILLER_0_13_15
*382 FILLER_0_13_161
*383 FILLER_0_13_167
*384 FILLER_0_13_169
*385 FILLER_0_13_181
*386 FILLER_0_13_193
*387 FILLER_0_13_205
*388 FILLER_0_13_217
*389 FILLER_0_13_223
*390 FILLER_0_13_225
*391 FILLER_0_13_237
*392 FILLER_0_13_249
*393 FILLER_0_13_261
*394 FILLER_0_13_27
*395 FILLER_0_13_273
*396 FILLER_0_13_279
*397 FILLER_0_13_281
*398 FILLER_0_13_293
*399 FILLER_0_13_3
*400 FILLER_0_13_305
*401 FILLER_0_13_317
*402 FILLER_0_13_329
*403 FILLER_0_13_335
*404 FILLER_0_13_337
*405 FILLER_0_13_349
*406 FILLER_0_13_39
*407 FILLER_0_13_51
*408 FILLER_0_13_55
*409 FILLER_0_13_57
*410 FILLER_0_13_69
*411 FILLER_0_13_81
*412 FILLER_0_13_93
*413 FILLER_0_14_109
*414 FILLER_0_14_121
*415 FILLER_0_14_133
*416 FILLER_0_14_139
*417 FILLER_0_14_141
*418 FILLER_0_14_15
*419 FILLER_0_14_153
*420 FILLER_0_14_165
*421 FILLER_0_14_177
*422 FILLER_0_14_189
*423 FILLER_0_14_195
*424 FILLER_0_14_197
*425 FILLER_0_14_209
*426 FILLER_0_14_221
*427 FILLER_0_14_233
*428 FILLER_0_14_245
*429 FILLER_0_14_251
*430 FILLER_0_14_253
*431 FILLER_0_14_265
*432 FILLER_0_14_27
*433 FILLER_0_14_277
*434 FILLER_0_14_289
*435 FILLER_0_14_29
*436 FILLER_0_14_3
*437 FILLER_0_14_301
*438 FILLER_0_14_307
*439 FILLER_0_14_309
*440 FILLER_0_14_321
*441 FILLER_0_14_333
*442 FILLER_0_14_345
*443 FILLER_0_14_41
*444 FILLER_0_14_53
*445 FILLER_0_14_65
*446 FILLER_0_14_77
*447 FILLER_0_14_83
*448 FILLER_0_14_85
*449 FILLER_0_14_97
*450 FILLER_0_15_105
*451 FILLER_0_15_111
*452 FILLER_0_15_113
*453 FILLER_0_15_125
*454 FILLER_0_15_137
*455 FILLER_0_15_149
*456 FILLER_0_15_15
*457 FILLER_0_15_161
*458 FILLER_0_15_167
*459 FILLER_0_15_169
*460 FILLER_0_15_181
*461 FILLER_0_15_193
*462 FILLER_0_15_205
*463 FILLER_0_15_217
*464 FILLER_0_15_223
*465 FILLER_0_15_225
*466 FILLER_0_15_237
*467 FILLER_0_15_249
*468 FILLER_0_15_261
*469 FILLER_0_15_27
*470 FILLER_0_15_273
*471 FILLER_0_15_279
*472 FILLER_0_15_281
*473 FILLER_0_15_293
*474 FILLER_0_15_3
*475 FILLER_0_15_305
*476 FILLER_0_15_317
*477 FILLER_0_15_329
*478 FILLER_0_15_335
*479 FILLER_0_15_337
*480 FILLER_0_15_349
*481 FILLER_0_15_39
*482 FILLER_0_15_51
*483 FILLER_0_15_55
*484 FILLER_0_15_57
*485 FILLER_0_15_69
*486 FILLER_0_15_81
*487 FILLER_0_15_93
*488 FILLER_0_16_109
*489 FILLER_0_16_121
*490 FILLER_0_16_133
*491 FILLER_0_16_139
*492 FILLER_0_16_141
*493 FILLER_0_16_15
*494 FILLER_0_16_153
*495 FILLER_0_16_165
*496 FILLER_0_16_177
*497 FILLER_0_16_189
*498 FILLER_0_16_195
*499 FILLER_0_16_197
*500 FILLER_0_16_209
*501 FILLER_0_16_221
*502 FILLER_0_16_233
*503 FILLER_0_16_245
*504 FILLER_0_16_251
*505 FILLER_0_16_253
*506 FILLER_0_16_265
*507 FILLER_0_16_27
*508 FILLER_0_16_277
*509 FILLER_0_16_289
*510 FILLER_0_16_29
*511 FILLER_0_16_3
*512 FILLER_0_16_301
*513 FILLER_0_16_307
*514 FILLER_0_16_309
*515 FILLER_0_16_321
*516 FILLER_0_16_333
*517 FILLER_0_16_345
*518 FILLER_0_16_41
*519 FILLER_0_16_53
*520 FILLER_0_16_65
*521 FILLER_0_16_77
*522 FILLER_0_16_83
*523 FILLER_0_16_85
*524 FILLER_0_16_97
*525 FILLER_0_17_105
*526 FILLER_0_17_111
*527 FILLER_0_17_113
*528 FILLER_0_17_125
*529 FILLER_0_17_137
*530 FILLER_0_17_149
*531 FILLER_0_17_15
*532 FILLER_0_17_161
*533 FILLER_0_17_167
*534 FILLER_0_17_169
*535 FILLER_0_17_181
*536 FILLER_0_17_193
*537 FILLER_0_17_205
*538 FILLER_0_17_217
*539 FILLER_0_17_223
*540 FILLER_0_17_225
*541 FILLER_0_17_237
*542 FILLER_0_17_249
*543 FILLER_0_17_261
*544 FILLER_0_17_27
*545 FILLER_0_17_273
*546 FILLER_0_17_279
*547 FILLER_0_17_281
*548 FILLER_0_17_293
*549 FILLER_0_17_3
*550 FILLER_0_17_305
*551 FILLER_0_17_317
*552 FILLER_0_17_329
*553 FILLER_0_17_335
*554 FILLER_0_17_337
*555 FILLER_0_17_349
*556 FILLER_0_17_39
*557 FILLER_0_17_51
*558 FILLER_0_17_55
*559 FILLER_0_17_57
*560 FILLER_0_17_69
*561 FILLER_0_17_81
*562 FILLER_0_17_93
*563 FILLER_0_18_109
*564 FILLER_0_18_121
*565 FILLER_0_18_133
*566 FILLER_0_18_139
*567 FILLER_0_18_141
*568 FILLER_0_18_15
*569 FILLER_0_18_153
*570 FILLER_0_18_165
*571 FILLER_0_18_177
*572 FILLER_0_18_189
*573 FILLER_0_18_195
*574 FILLER_0_18_197
*575 FILLER_0_18_209
*576 FILLER_0_18_221
*577 FILLER_0_18_233
*578 FILLER_0_18_245
*579 FILLER_0_18_251
*580 FILLER_0_18_253
*581 FILLER_0_18_265
*582 FILLER_0_18_27
*583 FILLER_0_18_277
*584 FILLER_0_18_289
*585 FILLER_0_18_29
*586 FILLER_0_18_3
*587 FILLER_0_18_301
*588 FILLER_0_18_307
*589 FILLER_0_18_309
*590 FILLER_0_18_321
*591 FILLER_0_18_333
*592 FILLER_0_18_345
*593 FILLER_0_18_41
*594 FILLER_0_18_53
*595 FILLER_0_18_65
*596 FILLER_0_18_77
*597 FILLER_0_18_83
*598 FILLER_0_18_85
*599 FILLER_0_18_97
*600 FILLER_0_19_105
*601 FILLER_0_19_111
*602 FILLER_0_19_113
*603 FILLER_0_19_125
*604 FILLER_0_19_137
*605 FILLER_0_19_149
*606 FILLER_0_19_15
*607 FILLER_0_19_161
*608 FILLER_0_19_167
*609 FILLER_0_19_169
*610 FILLER_0_19_181
*611 FILLER_0_19_193
*612 FILLER_0_19_205
*613 FILLER_0_19_217
*614 FILLER_0_19_223
*615 FILLER_0_19_225
*616 FILLER_0_19_237
*617 FILLER_0_19_249
*618 FILLER_0_19_261
*619 FILLER_0_19_27
*620 FILLER_0_19_273
*621 FILLER_0_19_279
*622 FILLER_0_19_281
*623 FILLER_0_19_293
*624 FILLER_0_19_3
*625 FILLER_0_19_305
*626 FILLER_0_19_317
*627 FILLER_0_19_329
*628 FILLER_0_19_335
*629 FILLER_0_19_337
*630 FILLER_0_19_349
*631 FILLER_0_19_39
*632 FILLER_0_19_51
*633 FILLER_0_19_55
*634 FILLER_0_19_57
*635 FILLER_0_19_69
*636 FILLER_0_19_81
*637 FILLER_0_19_93
*638 FILLER_0_1_105
*639 FILLER_0_1_111
*640 FILLER_0_1_113
*641 FILLER_0_1_125
*642 FILLER_0_1_137
*643 FILLER_0_1_149
*644 FILLER_0_1_15
*645 FILLER_0_1_161
*646 FILLER_0_1_167
*647 FILLER_0_1_169
*648 FILLER_0_1_181
*649 FILLER_0_1_193
*650 FILLER_0_1_205
*651 FILLER_0_1_217
*652 FILLER_0_1_223
*653 FILLER_0_1_225
*654 FILLER_0_1_237
*655 FILLER_0_1_249
*656 FILLER_0_1_261
*657 FILLER_0_1_27
*658 FILLER_0_1_273
*659 FILLER_0_1_279
*660 FILLER_0_1_281
*661 FILLER_0_1_293
*662 FILLER_0_1_3
*663 FILLER_0_1_305
*664 FILLER_0_1_317
*665 FILLER_0_1_329
*666 FILLER_0_1_335
*667 FILLER_0_1_337
*668 FILLER_0_1_349
*669 FILLER_0_1_39
*670 FILLER_0_1_51
*671 FILLER_0_1_55
*672 FILLER_0_1_57
*673 FILLER_0_1_69
*674 FILLER_0_1_81
*675 FILLER_0_1_93
*676 FILLER_0_20_109
*677 FILLER_0_20_121
*678 FILLER_0_20_133
*679 FILLER_0_20_139
*680 FILLER_0_20_141
*681 FILLER_0_20_15
*682 FILLER_0_20_153
*683 FILLER_0_20_165
*684 FILLER_0_20_177
*685 FILLER_0_20_189
*686 FILLER_0_20_195
*687 FILLER_0_20_197
*688 FILLER_0_20_209
*689 FILLER_0_20_221
*690 FILLER_0_20_233
*691 FILLER_0_20_245
*692 FILLER_0_20_251
*693 FILLER_0_20_253
*694 FILLER_0_20_265
*695 FILLER_0_20_27
*696 FILLER_0_20_277
*697 FILLER_0_20_289
*698 FILLER_0_20_29
*699 FILLER_0_20_3
*700 FILLER_0_20_301
*701 FILLER_0_20_307
*702 FILLER_0_20_309
*703 FILLER_0_20_321
*704 FILLER_0_20_333
*705 FILLER_0_20_345
*706 FILLER_0_20_41
*707 FILLER_0_20_53
*708 FILLER_0_20_65
*709 FILLER_0_20_77
*710 FILLER_0_20_83
*711 FILLER_0_20_85
*712 FILLER_0_20_97
*713 FILLER_0_21_105
*714 FILLER_0_21_111
*715 FILLER_0_21_113
*716 FILLER_0_21_125
*717 FILLER_0_21_137
*718 FILLER_0_21_149
*719 FILLER_0_21_15
*720 FILLER_0_21_161
*721 FILLER_0_21_167
*722 FILLER_0_21_169
*723 FILLER_0_21_181
*724 FILLER_0_21_193
*725 FILLER_0_21_205
*726 FILLER_0_21_217
*727 FILLER_0_21_223
*728 FILLER_0_21_225
*729 FILLER_0_21_237
*730 FILLER_0_21_249
*731 FILLER_0_21_261
*732 FILLER_0_21_27
*733 FILLER_0_21_273
*734 FILLER_0_21_279
*735 FILLER_0_21_281
*736 FILLER_0_21_293
*737 FILLER_0_21_3
*738 FILLER_0_21_305
*739 FILLER_0_21_317
*740 FILLER_0_21_329
*741 FILLER_0_21_335
*742 FILLER_0_21_337
*743 FILLER_0_21_349
*744 FILLER_0_21_39
*745 FILLER_0_21_51
*746 FILLER_0_21_55
*747 FILLER_0_21_57
*748 FILLER_0_21_69
*749 FILLER_0_21_81
*750 FILLER_0_21_93
*751 FILLER_0_22_109
*752 FILLER_0_22_121
*753 FILLER_0_22_133
*754 FILLER_0_22_139
*755 FILLER_0_22_141
*756 FILLER_0_22_15
*757 FILLER_0_22_153
*758 FILLER_0_22_165
*759 FILLER_0_22_177
*760 FILLER_0_22_189
*761 FILLER_0_22_195
*762 FILLER_0_22_197
*763 FILLER_0_22_209
*764 FILLER_0_22_221
*765 FILLER_0_22_233
*766 FILLER_0_22_245
*767 FILLER_0_22_251
*768 FILLER_0_22_253
*769 FILLER_0_22_265
*770 FILLER_0_22_27
*771 FILLER_0_22_277
*772 FILLER_0_22_289
*773 FILLER_0_22_29
*774 FILLER_0_22_3
*775 FILLER_0_22_301
*776 FILLER_0_22_307
*777 FILLER_0_22_309
*778 FILLER_0_22_321
*779 FILLER_0_22_333
*780 FILLER_0_22_345
*781 FILLER_0_22_41
*782 FILLER_0_22_53
*783 FILLER_0_22_65
*784 FILLER_0_22_77
*785 FILLER_0_22_83
*786 FILLER_0_22_85
*787 FILLER_0_22_97
*788 FILLER_0_23_105
*789 FILLER_0_23_111
*790 FILLER_0_23_113
*791 FILLER_0_23_125
*792 FILLER_0_23_137
*793 FILLER_0_23_149
*794 FILLER_0_23_15
*795 FILLER_0_23_161
*796 FILLER_0_23_167
*797 FILLER_0_23_169
*798 FILLER_0_23_181
*799 FILLER_0_23_193
*800 FILLER_0_23_205
*801 FILLER_0_23_217
*802 FILLER_0_23_223
*803 FILLER_0_23_225
*804 FILLER_0_23_237
*805 FILLER_0_23_249
*806 FILLER_0_23_261
*807 FILLER_0_23_27
*808 FILLER_0_23_273
*809 FILLER_0_23_279
*810 FILLER_0_23_281
*811 FILLER_0_23_3
*812 FILLER_0_23_310
*813 FILLER_0_23_322
*814 FILLER_0_23_334
*815 FILLER_0_23_337
*816 FILLER_0_23_349
*817 FILLER_0_23_39
*818 FILLER_0_23_51
*819 FILLER_0_23_55
*820 FILLER_0_23_57
*821 FILLER_0_23_69
*822 FILLER_0_23_81
*823 FILLER_0_23_93
*824 FILLER_0_24_109
*825 FILLER_0_24_121
*826 FILLER_0_24_133
*827 FILLER_0_24_139
*828 FILLER_0_24_141
*829 FILLER_0_24_15
*830 FILLER_0_24_153
*831 FILLER_0_24_165
*832 FILLER_0_24_177
*833 FILLER_0_24_189
*834 FILLER_0_24_195
*835 FILLER_0_24_197
*836 FILLER_0_24_209
*837 FILLER_0_24_221
*838 FILLER_0_24_233
*839 FILLER_0_24_245
*840 FILLER_0_24_253
*841 FILLER_0_24_265
*842 FILLER_0_24_27
*843 FILLER_0_24_29
*844 FILLER_0_24_297
*845 FILLER_0_24_3
*846 FILLER_0_24_318
*847 FILLER_0_24_322
*848 FILLER_0_24_344
*849 FILLER_0_24_350
*850 FILLER_0_24_41
*851 FILLER_0_24_53
*852 FILLER_0_24_65
*853 FILLER_0_24_77
*854 FILLER_0_24_83
*855 FILLER_0_24_85
*856 FILLER_0_24_97
*857 FILLER_0_25_105
*858 FILLER_0_25_111
*859 FILLER_0_25_113
*860 FILLER_0_25_125
*861 FILLER_0_25_137
*862 FILLER_0_25_149
*863 FILLER_0_25_15
*864 FILLER_0_25_161
*865 FILLER_0_25_167
*866 FILLER_0_25_169
*867 FILLER_0_25_181
*868 FILLER_0_25_193
*869 FILLER_0_25_205
*870 FILLER_0_25_217
*871 FILLER_0_25_223
*872 FILLER_0_25_225
*873 FILLER_0_25_237
*874 FILLER_0_25_262
*875 FILLER_0_25_27
*876 FILLER_0_25_274
*877 FILLER_0_25_285
*878 FILLER_0_25_294
*879 FILLER_0_25_3
*880 FILLER_0_25_319
*881 FILLER_0_25_349
*882 FILLER_0_25_39
*883 FILLER_0_25_51
*884 FILLER_0_25_55
*885 FILLER_0_25_57
*886 FILLER_0_25_69
*887 FILLER_0_25_81
*888 FILLER_0_25_93
*889 FILLER_0_26_109
*890 FILLER_0_26_121
*891 FILLER_0_26_133
*892 FILLER_0_26_139
*893 FILLER_0_26_141
*894 FILLER_0_26_15
*895 FILLER_0_26_153
*896 FILLER_0_26_165
*897 FILLER_0_26_177
*898 FILLER_0_26_189
*899 FILLER_0_26_195
*900 FILLER_0_26_197
*901 FILLER_0_26_230
*902 FILLER_0_26_236
*903 FILLER_0_26_27
*904 FILLER_0_26_29
*905 FILLER_0_26_296
*906 FILLER_0_26_3
*907 FILLER_0_26_307
*908 FILLER_0_26_347
*909 FILLER_0_26_41
*910 FILLER_0_26_53
*911 FILLER_0_26_65
*912 FILLER_0_26_77
*913 FILLER_0_26_83
*914 FILLER_0_26_85
*915 FILLER_0_26_97
*916 FILLER_0_27_105
*917 FILLER_0_27_111
*918 FILLER_0_27_113
*919 FILLER_0_27_125
*920 FILLER_0_27_137
*921 FILLER_0_27_149
*922 FILLER_0_27_15
*923 FILLER_0_27_161
*924 FILLER_0_27_167
*925 FILLER_0_27_169
*926 FILLER_0_27_181
*927 FILLER_0_27_193
*928 FILLER_0_27_223
*929 FILLER_0_27_235
*930 FILLER_0_27_240
*931 FILLER_0_27_27
*932 FILLER_0_27_276
*933 FILLER_0_27_288
*934 FILLER_0_27_3
*935 FILLER_0_27_332
*936 FILLER_0_27_347
*937 FILLER_0_27_39
*938 FILLER_0_27_51
*939 FILLER_0_27_55
*940 FILLER_0_27_57
*941 FILLER_0_27_69
*942 FILLER_0_27_81
*943 FILLER_0_27_93
*944 FILLER_0_28_109
*945 FILLER_0_28_121
*946 FILLER_0_28_133
*947 FILLER_0_28_139
*948 FILLER_0_28_141
*949 FILLER_0_28_15
*950 FILLER_0_28_153
*951 FILLER_0_28_165
*952 FILLER_0_28_177
*953 FILLER_0_28_189
*954 FILLER_0_28_195
*955 FILLER_0_28_197
*956 FILLER_0_28_230
*957 FILLER_0_28_242
*958 FILLER_0_28_250
*959 FILLER_0_28_253
*960 FILLER_0_28_27
*961 FILLER_0_28_277
*962 FILLER_0_28_289
*963 FILLER_0_28_29
*964 FILLER_0_28_3
*965 FILLER_0_28_301
*966 FILLER_0_28_337
*967 FILLER_0_28_349
*968 FILLER_0_28_41
*969 FILLER_0_28_53
*970 FILLER_0_28_65
*971 FILLER_0_28_77
*972 FILLER_0_28_83
*973 FILLER_0_28_85
*974 FILLER_0_28_97
*975 FILLER_0_29_105
*976 FILLER_0_29_111
*977 FILLER_0_29_113
*978 FILLER_0_29_125
*979 FILLER_0_29_137
*980 FILLER_0_29_149
*981 FILLER_0_29_15
*982 FILLER_0_29_161
*983 FILLER_0_29_167
*984 FILLER_0_29_169
*985 FILLER_0_29_181
*986 FILLER_0_29_193
*987 FILLER_0_29_201
*988 FILLER_0_29_240
*989 FILLER_0_29_252
*990 FILLER_0_29_27
*991 FILLER_0_29_275
*992 FILLER_0_29_279
*993 FILLER_0_29_281
*994 FILLER_0_29_293
*995 FILLER_0_29_3
*996 FILLER_0_29_305
*997 FILLER_0_29_319
*998 FILLER_0_29_337
*999 FILLER_0_29_349
*1000 FILLER_0_29_39
*1001 FILLER_0_29_51
*1002 FILLER_0_29_55
*1003 FILLER_0_29_57
*1004 FILLER_0_29_69
*1005 FILLER_0_29_81
*1006 FILLER_0_29_93
*1007 FILLER_0_2_109
*1008 FILLER_0_2_121
*1009 FILLER_0_2_133
*1010 FILLER_0_2_139
*1011 FILLER_0_2_141
*1012 FILLER_0_2_15
*1013 FILLER_0_2_153
*1014 FILLER_0_2_165
*1015 FILLER_0_2_177
*1016 FILLER_0_2_189
*1017 FILLER_0_2_195
*1018 FILLER_0_2_197
*1019 FILLER_0_2_209
*1020 FILLER_0_2_221
*1021 FILLER_0_2_233
*1022 FILLER_0_2_245
*1023 FILLER_0_2_251
*1024 FILLER_0_2_253
*1025 FILLER_0_2_265
*1026 FILLER_0_2_27
*1027 FILLER_0_2_277
*1028 FILLER_0_2_289
*1029 FILLER_0_2_29
*1030 FILLER_0_2_3
*1031 FILLER_0_2_301
*1032 FILLER_0_2_307
*1033 FILLER_0_2_309
*1034 FILLER_0_2_321
*1035 FILLER_0_2_333
*1036 FILLER_0_2_345
*1037 FILLER_0_2_41
*1038 FILLER_0_2_53
*1039 FILLER_0_2_65
*1040 FILLER_0_2_77
*1041 FILLER_0_2_83
*1042 FILLER_0_2_85
*1043 FILLER_0_2_97
*1044 FILLER_0_30_109
*1045 FILLER_0_30_121
*1046 FILLER_0_30_133
*1047 FILLER_0_30_139
*1048 FILLER_0_30_141
*1049 FILLER_0_30_15
*1050 FILLER_0_30_153
*1051 FILLER_0_30_165
*1052 FILLER_0_30_177
*1053 FILLER_0_30_189
*1054 FILLER_0_30_195
*1055 FILLER_0_30_197
*1056 FILLER_0_30_209
*1057 FILLER_0_30_241
*1058 FILLER_0_30_249
*1059 FILLER_0_30_27
*1060 FILLER_0_30_277
*1061 FILLER_0_30_288
*1062 FILLER_0_30_29
*1063 FILLER_0_30_3
*1064 FILLER_0_30_305
*1065 FILLER_0_30_309
*1066 FILLER_0_30_315
*1067 FILLER_0_30_326
*1068 FILLER_0_30_349
*1069 FILLER_0_30_41
*1070 FILLER_0_30_53
*1071 FILLER_0_30_65
*1072 FILLER_0_30_77
*1073 FILLER_0_30_83
*1074 FILLER_0_30_85
*1075 FILLER_0_30_97
*1076 FILLER_0_31_105
*1077 FILLER_0_31_111
*1078 FILLER_0_31_113
*1079 FILLER_0_31_125
*1080 FILLER_0_31_137
*1081 FILLER_0_31_149
*1082 FILLER_0_31_15
*1083 FILLER_0_31_161
*1084 FILLER_0_31_167
*1085 FILLER_0_31_169
*1086 FILLER_0_31_181
*1087 FILLER_0_31_193
*1088 FILLER_0_31_205
*1089 FILLER_0_31_209
*1090 FILLER_0_31_221
*1091 FILLER_0_31_245
*1092 FILLER_0_31_267
*1093 FILLER_0_31_27
*1094 FILLER_0_31_279
*1095 FILLER_0_31_281
*1096 FILLER_0_31_3
*1097 FILLER_0_31_303
*1098 FILLER_0_31_313
*1099 FILLER_0_31_335
*1100 FILLER_0_31_345
*1101 FILLER_0_31_39
*1102 FILLER_0_31_51
*1103 FILLER_0_31_55
*1104 FILLER_0_31_57
*1105 FILLER_0_31_69
*1106 FILLER_0_31_81
*1107 FILLER_0_31_93
*1108 FILLER_0_32_109
*1109 FILLER_0_32_121
*1110 FILLER_0_32_133
*1111 FILLER_0_32_139
*1112 FILLER_0_32_141
*1113 FILLER_0_32_15
*1114 FILLER_0_32_153
*1115 FILLER_0_32_165
*1116 FILLER_0_32_177
*1117 FILLER_0_32_189
*1118 FILLER_0_32_195
*1119 FILLER_0_32_197
*1120 FILLER_0_32_209
*1121 FILLER_0_32_236
*1122 FILLER_0_32_248
*1123 FILLER_0_32_253
*1124 FILLER_0_32_27
*1125 FILLER_0_32_29
*1126 FILLER_0_32_3
*1127 FILLER_0_32_302
*1128 FILLER_0_32_309
*1129 FILLER_0_32_346
*1130 FILLER_0_32_350
*1131 FILLER_0_32_41
*1132 FILLER_0_32_53
*1133 FILLER_0_32_65
*1134 FILLER_0_32_77
*1135 FILLER_0_32_83
*1136 FILLER_0_32_85
*1137 FILLER_0_32_97
*1138 FILLER_0_33_105
*1139 FILLER_0_33_111
*1140 FILLER_0_33_113
*1141 FILLER_0_33_125
*1142 FILLER_0_33_137
*1143 FILLER_0_33_149
*1144 FILLER_0_33_15
*1145 FILLER_0_33_161
*1146 FILLER_0_33_167
*1147 FILLER_0_33_169
*1148 FILLER_0_33_184
*1149 FILLER_0_33_196
*1150 FILLER_0_33_208
*1151 FILLER_0_33_220
*1152 FILLER_0_33_248
*1153 FILLER_0_33_260
*1154 FILLER_0_33_27
*1155 FILLER_0_33_279
*1156 FILLER_0_33_3
*1157 FILLER_0_33_307
*1158 FILLER_0_33_319
*1159 FILLER_0_33_323
*1160 FILLER_0_33_345
*1161 FILLER_0_33_39
*1162 FILLER_0_33_51
*1163 FILLER_0_33_55
*1164 FILLER_0_33_57
*1165 FILLER_0_33_69
*1166 FILLER_0_33_81
*1167 FILLER_0_33_93
*1168 FILLER_0_34_109
*1169 FILLER_0_34_121
*1170 FILLER_0_34_133
*1171 FILLER_0_34_139
*1172 FILLER_0_34_141
*1173 FILLER_0_34_15
*1174 FILLER_0_34_153
*1175 FILLER_0_34_165
*1176 FILLER_0_34_193
*1177 FILLER_0_34_197
*1178 FILLER_0_34_209
*1179 FILLER_0_34_236
*1180 FILLER_0_34_248
*1181 FILLER_0_34_253
*1182 FILLER_0_34_265
*1183 FILLER_0_34_27
*1184 FILLER_0_34_273
*1185 FILLER_0_34_29
*1186 FILLER_0_34_3
*1187 FILLER_0_34_307
*1188 FILLER_0_34_313
*1189 FILLER_0_34_321
*1190 FILLER_0_34_347
*1191 FILLER_0_34_41
*1192 FILLER_0_34_53
*1193 FILLER_0_34_65
*1194 FILLER_0_34_77
*1195 FILLER_0_34_83
*1196 FILLER_0_34_85
*1197 FILLER_0_34_97
*1198 FILLER_0_35_105
*1199 FILLER_0_35_111
*1200 FILLER_0_35_113
*1201 FILLER_0_35_125
*1202 FILLER_0_35_137
*1203 FILLER_0_35_149
*1204 FILLER_0_35_15
*1205 FILLER_0_35_205
*1206 FILLER_0_35_211
*1207 FILLER_0_35_223
*1208 FILLER_0_35_232
*1209 FILLER_0_35_244
*1210 FILLER_0_35_269
*1211 FILLER_0_35_27
*1212 FILLER_0_35_273
*1213 FILLER_0_35_281
*1214 FILLER_0_35_296
*1215 FILLER_0_35_3
*1216 FILLER_0_35_305
*1217 FILLER_0_35_313
*1218 FILLER_0_35_350
*1219 FILLER_0_35_39
*1220 FILLER_0_35_51
*1221 FILLER_0_35_55
*1222 FILLER_0_35_57
*1223 FILLER_0_35_69
*1224 FILLER_0_35_81
*1225 FILLER_0_35_93
*1226 FILLER_0_36_109
*1227 FILLER_0_36_121
*1228 FILLER_0_36_133
*1229 FILLER_0_36_139
*1230 FILLER_0_36_141
*1231 FILLER_0_36_15
*1232 FILLER_0_36_153
*1233 FILLER_0_36_195
*1234 FILLER_0_36_243
*1235 FILLER_0_36_251
*1236 FILLER_0_36_269
*1237 FILLER_0_36_27
*1238 FILLER_0_36_278
*1239 FILLER_0_36_29
*1240 FILLER_0_36_3
*1241 FILLER_0_36_305
*1242 FILLER_0_36_309
*1243 FILLER_0_36_317
*1244 FILLER_0_36_41
*1245 FILLER_0_36_53
*1246 FILLER_0_36_65
*1247 FILLER_0_36_77
*1248 FILLER_0_36_83
*1249 FILLER_0_36_85
*1250 FILLER_0_36_97
*1251 FILLER_0_37_105
*1252 FILLER_0_37_111
*1253 FILLER_0_37_113
*1254 FILLER_0_37_125
*1255 FILLER_0_37_137
*1256 FILLER_0_37_149
*1257 FILLER_0_37_15
*1258 FILLER_0_37_157
*1259 FILLER_0_37_207
*1260 FILLER_0_37_219
*1261 FILLER_0_37_223
*1262 FILLER_0_37_234
*1263 FILLER_0_37_27
*1264 FILLER_0_37_273
*1265 FILLER_0_37_287
*1266 FILLER_0_37_3
*1267 FILLER_0_37_309
*1268 FILLER_0_37_313
*1269 FILLER_0_37_335
*1270 FILLER_0_37_341
*1271 FILLER_0_37_350
*1272 FILLER_0_37_39
*1273 FILLER_0_37_51
*1274 FILLER_0_37_55
*1275 FILLER_0_37_57
*1276 FILLER_0_37_69
*1277 FILLER_0_37_81
*1278 FILLER_0_37_93
*1279 FILLER_0_38_102
*1280 FILLER_0_38_106
*1281 FILLER_0_38_110
*1282 FILLER_0_38_113
*1283 FILLER_0_38_118
*1284 FILLER_0_38_122
*1285 FILLER_0_38_126
*1286 FILLER_0_38_130
*1287 FILLER_0_38_134
*1288 FILLER_0_38_14
*1289 FILLER_0_38_144
*1290 FILLER_0_38_156
*1291 FILLER_0_38_169
*1292 FILLER_0_38_175
*1293 FILLER_0_38_18
*1294 FILLER_0_38_195
*1295 FILLER_0_38_197
*1296 FILLER_0_38_209
*1297 FILLER_0_38_22
*1298 FILLER_0_38_221
*1299 FILLER_0_38_225
*1300 FILLER_0_38_237
*1301 FILLER_0_38_258
*1302 FILLER_0_38_273
*1303 FILLER_0_38_278
*1304 FILLER_0_38_281
*1305 FILLER_0_38_286
*1306 FILLER_0_38_290
*1307 FILLER_0_38_294
*1308 FILLER_0_38_298
*1309 FILLER_0_38_3
*1310 FILLER_0_38_302
*1311 FILLER_0_38_312
*1312 FILLER_0_38_318
*1313 FILLER_0_38_32
*1314 FILLER_0_38_322
*1315 FILLER_0_38_335
*1316 FILLER_0_38_337
*1317 FILLER_0_38_349
*1318 FILLER_0_38_38
*1319 FILLER_0_38_42
*1320 FILLER_0_38_46
*1321 FILLER_0_38_50
*1322 FILLER_0_38_54
*1323 FILLER_0_38_57
*1324 FILLER_0_38_62
*1325 FILLER_0_38_66
*1326 FILLER_0_38_70
*1327 FILLER_0_38_74
*1328 FILLER_0_38_78
*1329 FILLER_0_38_88
*1330 FILLER_0_38_94
*1331 FILLER_0_38_98
*1332 FILLER_0_3_105
*1333 FILLER_0_3_111
*1334 FILLER_0_3_113
*1335 FILLER_0_3_125
*1336 FILLER_0_3_137
*1337 FILLER_0_3_149
*1338 FILLER_0_3_15
*1339 FILLER_0_3_161
*1340 FILLER_0_3_167
*1341 FILLER_0_3_169
*1342 FILLER_0_3_181
*1343 FILLER_0_3_193
*1344 FILLER_0_3_205
*1345 FILLER_0_3_217
*1346 FILLER_0_3_223
*1347 FILLER_0_3_225
*1348 FILLER_0_3_237
*1349 FILLER_0_3_249
*1350 FILLER_0_3_261
*1351 FILLER_0_3_27
*1352 FILLER_0_3_273
*1353 FILLER_0_3_279
*1354 FILLER_0_3_281
*1355 FILLER_0_3_293
*1356 FILLER_0_3_3
*1357 FILLER_0_3_305
*1358 FILLER_0_3_317
*1359 FILLER_0_3_329
*1360 FILLER_0_3_335
*1361 FILLER_0_3_337
*1362 FILLER_0_3_349
*1363 FILLER_0_3_39
*1364 FILLER_0_3_51
*1365 FILLER_0_3_55
*1366 FILLER_0_3_57
*1367 FILLER_0_3_69
*1368 FILLER_0_3_81
*1369 FILLER_0_3_93
*1370 FILLER_0_4_109
*1371 FILLER_0_4_121
*1372 FILLER_0_4_133
*1373 FILLER_0_4_139
*1374 FILLER_0_4_141
*1375 FILLER_0_4_15
*1376 FILLER_0_4_153
*1377 FILLER_0_4_165
*1378 FILLER_0_4_177
*1379 FILLER_0_4_189
*1380 FILLER_0_4_195
*1381 FILLER_0_4_197
*1382 FILLER_0_4_209
*1383 FILLER_0_4_221
*1384 FILLER_0_4_233
*1385 FILLER_0_4_245
*1386 FILLER_0_4_251
*1387 FILLER_0_4_253
*1388 FILLER_0_4_265
*1389 FILLER_0_4_27
*1390 FILLER_0_4_277
*1391 FILLER_0_4_289
*1392 FILLER_0_4_29
*1393 FILLER_0_4_3
*1394 FILLER_0_4_301
*1395 FILLER_0_4_307
*1396 FILLER_0_4_309
*1397 FILLER_0_4_321
*1398 FILLER_0_4_333
*1399 FILLER_0_4_345
*1400 FILLER_0_4_41
*1401 FILLER_0_4_53
*1402 FILLER_0_4_65
*1403 FILLER_0_4_77
*1404 FILLER_0_4_83
*1405 FILLER_0_4_85
*1406 FILLER_0_4_97
*1407 FILLER_0_5_105
*1408 FILLER_0_5_111
*1409 FILLER_0_5_113
*1410 FILLER_0_5_125
*1411 FILLER_0_5_137
*1412 FILLER_0_5_149
*1413 FILLER_0_5_15
*1414 FILLER_0_5_161
*1415 FILLER_0_5_167
*1416 FILLER_0_5_169
*1417 FILLER_0_5_181
*1418 FILLER_0_5_193
*1419 FILLER_0_5_205
*1420 FILLER_0_5_217
*1421 FILLER_0_5_223
*1422 FILLER_0_5_225
*1423 FILLER_0_5_237
*1424 FILLER_0_5_249
*1425 FILLER_0_5_261
*1426 FILLER_0_5_27
*1427 FILLER_0_5_273
*1428 FILLER_0_5_279
*1429 FILLER_0_5_281
*1430 FILLER_0_5_293
*1431 FILLER_0_5_3
*1432 FILLER_0_5_305
*1433 FILLER_0_5_317
*1434 FILLER_0_5_329
*1435 FILLER_0_5_335
*1436 FILLER_0_5_337
*1437 FILLER_0_5_349
*1438 FILLER_0_5_39
*1439 FILLER_0_5_51
*1440 FILLER_0_5_55
*1441 FILLER_0_5_57
*1442 FILLER_0_5_69
*1443 FILLER_0_5_81
*1444 FILLER_0_5_93
*1445 FILLER_0_6_109
*1446 FILLER_0_6_121
*1447 FILLER_0_6_133
*1448 FILLER_0_6_139
*1449 FILLER_0_6_141
*1450 FILLER_0_6_15
*1451 FILLER_0_6_153
*1452 FILLER_0_6_165
*1453 FILLER_0_6_177
*1454 FILLER_0_6_189
*1455 FILLER_0_6_195
*1456 FILLER_0_6_197
*1457 FILLER_0_6_209
*1458 FILLER_0_6_221
*1459 FILLER_0_6_233
*1460 FILLER_0_6_245
*1461 FILLER_0_6_251
*1462 FILLER_0_6_253
*1463 FILLER_0_6_265
*1464 FILLER_0_6_27
*1465 FILLER_0_6_277
*1466 FILLER_0_6_289
*1467 FILLER_0_6_29
*1468 FILLER_0_6_3
*1469 FILLER_0_6_301
*1470 FILLER_0_6_307
*1471 FILLER_0_6_309
*1472 FILLER_0_6_321
*1473 FILLER_0_6_333
*1474 FILLER_0_6_345
*1475 FILLER_0_6_41