*SPEF "ieee 1481-1999"
*DESIGN "tt_um_currymottled"
*DATE "11:11:11 Fri 11 11, 1111"
*VENDOR "OpenRCX"
*PROGRAM "Parallel Extraction"
*VERSION "1.0"
*DESIGN_FLOW "NAME_SCOPE LOCAL" "PIN_CAP NONE"
*DIVIDER /
*DELIMITER :
*BUS_DELIMITER []
*T_UNIT 1 NS
*C_UNIT 1 PF
*R_UNIT 1 OHM
*L_UNIT 1 HENRY

*NAME_MAP
*3 clk
*4 ena
*5 rst_n
*6 ui_in[0]
*7 ui_in[1]
*8 ui_in[2]
*9 ui_in[3]
*10 ui_in[4]
*11 ui_in[5]
*12 ui_in[6]
*13 ui_in[7]
*14 uio_in[0]
*15 uio_in[1]
*16 uio_in[2]
*17 uio_in[3]
*18 uio_in[4]
*19 uio_in[5]
*20 uio_in[6]
*21 uio_in[7]
*22 net11
*23 uio_oe[1]
*24 uio_oe[2]
*25 uio_oe[3]
*26 uio_oe[4]
*27 uio_oe[5]
*28 uio_oe[6]
*29 uio_oe[7]
*30 net12
*31 uio_out[1]
*32 uio_out[2]
*33 uio_out[3]
*34 uio_out[4]
*35 uio_out[5]
*36 uio_out[6]
*37 uio_out[7]
*38 net13
*39 net14
*40 net15
*41 net16
*42 net17
*43 net18
*44 net19
*45 net20
*46 I2C_Interface\.K_d\[0\]
*47 I2C_Interface\.K_d\[1\]
*48 I2C_Interface\.K_d\[2\]
*49 I2C_Interface\.K_d\[3\]
*50 I2C_Interface\.K_d\[4\]
*51 I2C_Interface\.K_d\[5\]
*52 I2C_Interface\.K_i\[0\]
*53 I2C_Interface\.K_i\[1\]
*54 I2C_Interface\.K_i\[2\]
*55 I2C_Interface\.K_i\[3\]
*56 I2C_Interface\.K_i\[4\]
*57 I2C_Interface\.K_i\[5\]
*58 I2C_Interface\.K_p\[0\]
*59 I2C_Interface\.K_p\[1\]
*60 I2C_Interface\.K_p\[2\]
*61 I2C_Interface\.K_p\[3\]
*62 I2C_Interface\.K_p\[4\]
*63 I2C_Interface\.K_p\[5\]
*64 I2C_Interface\.Registers\.read_or_write
*65 I2C_Interface\.Registers\.read_value\[0\]
*66 I2C_Interface\.Registers\.read_value\[1\]
*67 I2C_Interface\.Registers\.read_value\[2\]
*68 I2C_Interface\.Registers\.read_value\[3\]
*69 I2C_Interface\.Registers\.read_value\[4\]
*70 I2C_Interface\.Registers\.read_value\[5\]
*71 I2C_Interface\.Registers\.reg_addr\[0\]
*72 I2C_Interface\.Registers\.reg_addr\[1\]
*73 I2C_Interface\.Registers\.reg_addr\[2\]
*74 I2C_Interface\.Registers\.reg_addr\[3\]
*75 I2C_Interface\.Registers\.reg_addr\[4\]
*76 I2C_Interface\.Registers\.reg_addr\[5\]
*77 I2C_Interface\.Registers\.reg_addr\[6\]
*78 I2C_Interface\.Registers\.reg_addr\[7\]
*79 I2C_Interface\.Registers\.update_value\[0\]
*80 I2C_Interface\.Registers\.update_value\[1\]
*81 I2C_Interface\.Registers\.update_value\[2\]
*82 I2C_Interface\.Registers\.update_value\[3\]
*83 I2C_Interface\.Registers\.update_value\[4\]
*84 I2C_Interface\.Registers\.update_value\[5\]
*85 I2C_Interface\.SDA_ena
*86 I2C_Interface\.SDA_out
*87 I2C_Interface\.Signals\.SCL_prev
*88 I2C_Interface\.Signals\.data_index\[0\]
*89 I2C_Interface\.Signals\.data_index\[1\]
*90 I2C_Interface\.Signals\.data_index\[2\]
*91 I2C_Interface\.Slave_settings\.addr_index\[0\]
*92 I2C_Interface\.Slave_settings\.addr_index\[1\]
*93 I2C_Interface\.Slave_settings\.addr_index\[2\]
*94 I2C_Interface\.Slave_settings\.device_addr\[0\]
*95 I2C_Interface\.Slave_settings\.device_addr\[1\]
*96 I2C_Interface\.Slave_settings\.device_addr\[2\]
*97 I2C_Interface\.Slave_settings\.device_addr\[3\]
*98 I2C_Interface\.Slave_settings\.device_addr\[4\]
*99 I2C_Interface\.Slave_settings\.device_addr\[5\]
*100 I2C_Interface\.Slave_settings\.device_addr\[6\]
*101 I2C_Interface\.Slave_settings\.reg_addr_temp\[0\]
*102 I2C_Interface\.Slave_settings\.reg_addr_temp\[1\]
*103 I2C_Interface\.Slave_settings\.reg_addr_temp\[2\]
*104 I2C_Interface\.Slave_settings\.reg_addr_temp\[3\]
*105 I2C_Interface\.Slave_settings\.reg_addr_temp\[4\]
*106 I2C_Interface\.Slave_settings\.reg_addr_temp\[5\]
*107 I2C_Interface\.Slave_settings\.reg_addr_temp\[6\]
*108 I2C_Interface\.Slave_settings\.reg_addr_temp\[7\]
*109 I2C_Interface\.Slave_settings\.reg_index\[0\]
*110 I2C_Interface\.Slave_settings\.reg_index\[1\]
*111 I2C_Interface\.Slave_settings\.reg_index\[2\]
*112 I2C_Interface\.Slave_settings\.state\[0\]
*113 I2C_Interface\.Slave_settings\.state\[10\]
*114 I2C_Interface\.Slave_settings\.state\[11\]
*115 I2C_Interface\.Slave_settings\.state\[1\]
*116 I2C_Interface\.Slave_settings\.state\[2\]
*117 I2C_Interface\.Slave_settings\.state\[3\]
*118 I2C_Interface\.Slave_settings\.state\[4\]
*119 I2C_Interface\.Slave_settings\.state\[5\]
*120 I2C_Interface\.Slave_settings\.state\[6\]
*121 I2C_Interface\.Slave_settings\.state\[7\]
*122 I2C_Interface\.Slave_settings\.state\[8\]
*123 I2C_Interface\.Slave_settings\.state\[9\]
*124 I2C_Interface\.Slave_settings\.update_value_temp\[0\]
*125 I2C_Interface\.Slave_settings\.update_value_temp\[1\]
*126 I2C_Interface\.Slave_settings\.update_value_temp\[2\]
*127 I2C_Interface\.Slave_settings\.update_value_temp\[3\]
*128 I2C_Interface\.Slave_settings\.update_value_temp\[4\]
*129 I2C_Interface\.Slave_settings\.update_value_temp\[5\]
*130 PID\.D_ins\.K_d_repadder\.a\[0\]
*131 PID\.D_ins\.K_d_repadder\.a\[1\]
*132 PID\.D_ins\.K_d_repadder\.a\[2\]
*133 PID\.D_ins\.K_d_repadder\.a\[3\]
*134 PID\.D_ins\.K_d_repadder\.a\[4\]
*135 PID\.D_ins\.K_d_repadder\.a\[5\]
*136 PID\.D_ins\.K_d_repadder\.a_reg\[0\]
*137 PID\.D_ins\.K_d_repadder\.a_reg\[10\]
*138 PID\.D_ins\.K_d_repadder\.a_reg\[1\]
*139 PID\.D_ins\.K_d_repadder\.a_reg\[2\]
*140 PID\.D_ins\.K_d_repadder\.a_reg\[3\]
*141 PID\.D_ins\.K_d_repadder\.a_reg\[4\]
*142 PID\.D_ins\.K_d_repadder\.a_times_b\[0\]
*143 PID\.D_ins\.K_d_repadder\.a_times_b\[1\]
*144 PID\.D_ins\.K_d_repadder\.a_times_b\[2\]
*145 PID\.D_ins\.K_d_repadder\.a_times_b\[3\]
*146 PID\.D_ins\.K_d_repadder\.a_times_b\[4\]
*147 PID\.D_ins\.K_d_repadder\.a_times_b\[5\]
*148 PID\.D_ins\.K_d_repadder\.index\[0\]
*149 PID\.D_ins\.K_d_repadder\.index\[1\]
*150 PID\.D_ins\.K_d_repadder\.index\[2\]
*151 PID\.D_ins\.K_d_repadder\.index\[3\]
*152 PID\.D_ins\.K_d_repadder\.index\[4\]
*153 PID\.D_ins\.K_d_repadder\.index\[5\]
*154 PID\.D_ins\.K_d_repadder\.temp_result\[0\]
*155 PID\.D_ins\.K_d_repadder\.temp_result\[10\]
*156 PID\.D_ins\.K_d_repadder\.temp_result\[11\]
*157 PID\.D_ins\.K_d_repadder\.temp_result\[12\]
*158 PID\.D_ins\.K_d_repadder\.temp_result\[13\]
*159 PID\.D_ins\.K_d_repadder\.temp_result\[14\]
*160 PID\.D_ins\.K_d_repadder\.temp_result\[15\]
*161 PID\.D_ins\.K_d_repadder\.temp_result\[1\]
*162 PID\.D_ins\.K_d_repadder\.temp_result\[2\]
*163 PID\.D_ins\.K_d_repadder\.temp_result\[3\]
*164 PID\.D_ins\.K_d_repadder\.temp_result\[4\]
*165 PID\.D_ins\.K_d_repadder\.temp_result\[5\]
*166 PID\.D_ins\.K_d_repadder\.temp_result\[6\]
*167 PID\.D_ins\.K_d_repadder\.temp_result\[7\]
*168 PID\.D_ins\.K_d_repadder\.temp_result\[8\]
*169 PID\.D_ins\.K_d_repadder\.temp_result\[9\]
*170 PID\.D_ins\.e\[0\]
*171 PID\.D_ins\.e\[1\]
*172 PID\.D_ins\.e\[2\]
*173 PID\.D_ins\.e\[3\]
*174 PID\.D_ins\.e\[4\]
*175 PID\.D_ins\.e\[5\]
*176 PID\.D_ins\.e_prior\[0\]
*177 PID\.D_ins\.e_prior\[1\]
*178 PID\.D_ins\.e_prior\[2\]
*179 PID\.D_ins\.e_prior\[3\]
*180 PID\.D_ins\.e_prior\[4\]
*181 PID\.D_ins\.e_prior\[5\]
*182 PID\.I_ins\.K_d_repadder\.a\[0\]
*183 PID\.I_ins\.K_d_repadder\.a\[1\]
*184 PID\.I_ins\.K_d_repadder\.a\[2\]
*185 PID\.I_ins\.K_d_repadder\.a\[3\]
*186 PID\.I_ins\.K_d_repadder\.a\[4\]
*187 PID\.I_ins\.K_d_repadder\.a\[5\]
*188 PID\.I_ins\.K_d_repadder\.a_reg\[0\]
*189 PID\.I_ins\.K_d_repadder\.a_reg\[10\]
*190 PID\.I_ins\.K_d_repadder\.a_reg\[1\]
*191 PID\.I_ins\.K_d_repadder\.a_reg\[2\]
*192 PID\.I_ins\.K_d_repadder\.a_reg\[3\]
*193 PID\.I_ins\.K_d_repadder\.a_reg\[4\]
*194 PID\.I_ins\.K_d_repadder\.a_times_b\[0\]
*195 PID\.I_ins\.K_d_repadder\.a_times_b\[1\]
*196 PID\.I_ins\.K_d_repadder\.a_times_b\[2\]
*197 PID\.I_ins\.K_d_repadder\.a_times_b\[3\]
*198 PID\.I_ins\.K_d_repadder\.a_times_b\[4\]
*199 PID\.I_ins\.K_d_repadder\.a_times_b\[5\]
*200 PID\.I_ins\.K_d_repadder\.index\[0\]
*201 PID\.I_ins\.K_d_repadder\.index\[1\]
*202 PID\.I_ins\.K_d_repadder\.index\[2\]
*203 PID\.I_ins\.K_d_repadder\.index\[3\]
*204 PID\.I_ins\.K_d_repadder\.index\[4\]
*205 PID\.I_ins\.K_d_repadder\.index\[5\]
*206 PID\.I_ins\.K_d_repadder\.temp_result\[0\]
*207 PID\.I_ins\.K_d_repadder\.temp_result\[10\]
*208 PID\.I_ins\.K_d_repadder\.temp_result\[11\]
*209 PID\.I_ins\.K_d_repadder\.temp_result\[12\]
*210 PID\.I_ins\.K_d_repadder\.temp_result\[13\]
*211 PID\.I_ins\.K_d_repadder\.temp_result\[14\]
*212 PID\.I_ins\.K_d_repadder\.temp_result\[15\]
*213 PID\.I_ins\.K_d_repadder\.temp_result\[1\]
*214 PID\.I_ins\.K_d_repadder\.temp_result\[2\]
*215 PID\.I_ins\.K_d_repadder\.temp_result\[3\]
*216 PID\.I_ins\.K_d_repadder\.temp_result\[4\]
*217 PID\.I_ins\.K_d_repadder\.temp_result\[5\]
*218 PID\.I_ins\.K_d_repadder\.temp_result\[6\]
*219 PID\.I_ins\.K_d_repadder\.temp_result\[7\]
*220 PID\.I_ins\.K_d_repadder\.temp_result\[8\]
*221 PID\.I_ins\.K_d_repadder\.temp_result\[9\]
*222 PID\.P_ins\.K_p_repadder\.a_reg\[0\]
*223 PID\.P_ins\.K_p_repadder\.a_reg\[10\]
*224 PID\.P_ins\.K_p_repadder\.a_reg\[1\]
*225 PID\.P_ins\.K_p_repadder\.a_reg\[2\]
*226 PID\.P_ins\.K_p_repadder\.a_reg\[3\]
*227 PID\.P_ins\.K_p_repadder\.a_reg\[4\]
*228 PID\.P_ins\.K_p_repadder\.a_times_b\[0\]
*229 PID\.P_ins\.K_p_repadder\.a_times_b\[1\]
*230 PID\.P_ins\.K_p_repadder\.a_times_b\[2\]
*231 PID\.P_ins\.K_p_repadder\.a_times_b\[3\]
*232 PID\.P_ins\.K_p_repadder\.a_times_b\[4\]
*233 PID\.P_ins\.K_p_repadder\.a_times_b\[5\]
*234 PID\.P_ins\.K_p_repadder\.index\[0\]
*235 PID\.P_ins\.K_p_repadder\.index\[1\]
*236 PID\.P_ins\.K_p_repadder\.index\[2\]
*237 PID\.P_ins\.K_p_repadder\.index\[3\]
*238 PID\.P_ins\.K_p_repadder\.index\[4\]
*239 PID\.P_ins\.K_p_repadder\.index\[5\]
*240 PID\.P_ins\.K_p_repadder\.temp_result\[0\]
*241 PID\.P_ins\.K_p_repadder\.temp_result\[10\]
*242 PID\.P_ins\.K_p_repadder\.temp_result\[11\]
*243 PID\.P_ins\.K_p_repadder\.temp_result\[12\]
*244 PID\.P_ins\.K_p_repadder\.temp_result\[13\]
*245 PID\.P_ins\.K_p_repadder\.temp_result\[14\]
*246 PID\.P_ins\.K_p_repadder\.temp_result\[15\]
*247 PID\.P_ins\.K_p_repadder\.temp_result\[1\]
*248 PID\.P_ins\.K_p_repadder\.temp_result\[2\]
*249 PID\.P_ins\.K_p_repadder\.temp_result\[3\]
*250 PID\.P_ins\.K_p_repadder\.temp_result\[4\]
*251 PID\.P_ins\.K_p_repadder\.temp_result\[5\]
*252 PID\.P_ins\.K_p_repadder\.temp_result\[6\]
*253 PID\.P_ins\.K_p_repadder\.temp_result\[7\]
*254 PID\.P_ins\.K_p_repadder\.temp_result\[8\]
*255 PID\.P_ins\.K_p_repadder\.temp_result\[9\]
*256 PID\.u\[0\]
*257 PID\.u\[1\]
*258 PID\.u\[2\]
*259 PID\.u\[3\]
*260 PID\.u\[4\]
*261 PID\.u\[5\]
*262 _0000_
*263 _0001_
*264 _0002_
*265 _0003_
*266 _0004_
*267 _0005_
*268 _0006_
*269 _0007_
*270 _0008_
*271 _0009_
*272 _0010_
*273 _0011_
*274 _0012_
*275 _0013_
*276 _0014_
*277 _0015_
*278 _0016_
*279 _0017_
*280 _0018_
*281 _0019_
*282 _0020_
*283 _0021_
*284 _0022_
*285 _0023_
*286 _0024_
*287 _0025_
*288 _0026_
*289 _0027_
*290 _0028_
*291 _0029_
*292 _0030_
*293 _0031_
*294 _0032_
*295 _0033_
*296 _0034_
*297 _0035_
*298 _0036_
*299 _0037_
*300 _0038_
*301 _0039_
*302 _0040_
*303 _0041_
*304 _0042_
*305 _0043_
*306 _0044_
*307 _0045_
*308 _0046_
*309 _0047_
*310 _0048_
*311 _0049_
*312 _0050_
*313 _0051_
*314 _0052_
*315 _0053_
*316 _0054_
*317 _0055_
*318 _0056_
*319 _0057_
*320 _0058_
*321 _0059_
*322 _0060_
*323 _0061_
*324 _0062_
*325 _0063_
*326 _0064_
*327 _0065_
*328 _0066_
*329 _0067_
*330 _0068_
*331 _0069_
*332 _0070_
*333 _0071_
*334 _0072_
*335 _0073_
*336 _0074_
*337 _0075_
*338 _0076_
*339 _0077_
*340 _0078_
*341 _0079_
*342 _0080_
*343 _0081_
*344 _0082_
*345 _0083_
*346 _0084_
*347 _0085_
*348 _0086_
*349 _0087_
*350 _0088_
*351 _0089_
*352 _0090_
*353 _0091_
*354 _0092_
*355 _0093_
*356 _0094_
*357 _0095_
*358 _0096_
*359 _0097_
*360 _0098_
*361 _0099_
*362 _0100_
*363 _0101_
*364 _0102_
*365 _0103_
*366 _0104_
*367 _0105_
*368 _0106_
*369 _0107_
*370 _0108_
*371 _0109_
*372 _0110_
*373 _0111_
*374 _0112_
*375 _0113_
*376 _0114_
*377 _0115_
*378 _0116_
*379 _0117_
*380 _0118_
*381 _0119_
*382 _0120_
*383 _0121_
*384 _0122_
*385 _0123_
*386 _0124_
*387 _0125_
*388 _0126_
*389 _0127_
*390 _0128_
*391 _0129_
*392 _0130_
*393 _0131_
*394 _0132_
*395 _0133_
*396 _0134_
*397 _0135_
*398 _0136_
*399 _0137_
*400 _0138_
*401 _0139_
*402 _0140_
*403 _0141_
*404 _0142_
*405 _0143_
*406 _0144_
*407 _0145_
*408 _0146_
*409 _0147_
*410 _0148_
*411 _0149_
*412 _0150_
*413 _0151_
*414 _0152_
*415 _0153_
*416 _0154_
*417 _0155_
*418 _0156_
*419 _0157_
*420 _0158_
*421 _0159_
*422 _0160_
*423 _0161_
*424 _0162_
*425 _0163_
*426 _0164_
*427 _0165_
*428 _0166_
*429 _0167_
*430 _0168_
*431 _0169_
*432 _0170_
*433 _0171_
*434 _0172_
*435 _0173_
*436 _0174_
*437 _0175_
*438 _0176_
*439 _0177_
*440 _0178_
*441 _0179_
*442 _0180_
*443 _0181_
*444 _0182_
*445 _0183_
*446 _0184_
*447 _0185_
*448 _0186_
*449 _0187_
*450 _0188_
*451 _0189_
*452 _0190_
*453 _0191_
*454 _0192_
*455 _0193_
*456 _0194_
*457 _0195_
*458 _0196_
*459 _0197_
*460 _0198_
*461 _0199_
*462 _0200_
*463 _0201_
*464 _0202_
*465 _0203_
*466 _0204_
*467 _0205_
*468 _0206_
*469 _0207_
*470 _0208_
*471 _0209_
*472 _0210_
*473 _0211_
*474 _0212_
*475 _0213_
*476 _0214_
*477 _0215_
*478 _0216_
*479 _0217_
*480 _0218_
*481 _0219_
*482 _0220_
*483 _0221_
*484 _0222_
*485 _0223_
*486 _0224_
*487 _0225_
*488 _0226_
*489 _0227_
*490 _0228_
*491 _0229_
*492 _0230_
*493 _0231_
*494 _0232_
*495 _0233_
*496 _0234_
*497 _0235_
*498 _0236_
*499 _0237_
*500 _0238_
*501 _0239_
*502 _0240_
*503 _0241_
*504 _0242_
*505 _0243_
*506 _0244_
*507 _0245_
*508 _0246_
*509 _0247_
*510 _0248_
*511 _0249_
*512 _0250_
*513 _0251_
*514 _0252_
*515 _0253_
*516 _0254_
*517 _0255_
*518 _0256_
*519 _0257_
*520 _0258_
*521 _0259_
*522 _0260_
*523 _0261_
*524 _0262_
*525 _0263_
*526 _0264_
*527 _0265_
*528 _0266_
*529 _0267_
*530 _0268_
*531 _0269_
*532 _0270_
*533 _0271_
*534 _0272_
*535 _0273_
*536 _0274_
*537 _0275_
*538 _0276_
*539 _0277_
*540 _0278_
*541 _0279_
*542 _0280_
*543 _0281_
*544 _0282_
*545 _0283_
*546 _0284_
*547 _0285_
*548 _0286_
*549 _0287_
*550 _0288_
*551 _0289_
*552 _0290_
*553 _0291_
*554 _0292_
*555 _0293_
*556 _0294_
*557 _0295_
*558 _0296_
*559 _0297_
*560 _0298_
*561 _0299_
*562 _0300_
*563 _0301_
*564 _0302_
*565 _0303_
*566 _0304_
*567 _0305_
*568 _0306_
*569 _0307_
*570 _0308_
*571 _0309_
*572 _0310_
*573 _0311_
*574 _0312_
*575 _0313_
*576 _0314_
*577 _0315_
*578 _0316_
*579 _0317_
*580 _0318_
*581 _0319_
*582 _0320_
*583 _0321_
*584 _0322_
*585 _0323_
*586 _0324_
*587 _0325_
*588 _0326_
*589 _0327_
*590 _0328_
*591 _0329_
*592 _0330_
*593 _0331_
*594 _0332_
*595 _0333_
*596 _0334_
*597 _0335_
*598 _0336_
*599 _0337_
*600 _0338_
*601 _0339_
*602 _0340_
*603 _0341_
*604 _0342_
*605 _0343_
*606 _0344_
*607 _0345_
*608 _0346_
*609 _0347_
*610 _0348_
*611 _0349_
*612 _0350_
*613 _0351_
*614 _0352_
*615 _0353_
*616 _0354_
*617 _0355_
*618 _0356_
*619 _0357_
*620 _0358_
*621 _0359_
*622 _0360_
*623 _0361_
*624 _0362_
*625 _0363_
*626 _0364_
*627 _0365_
*628 _0366_
*629 _0367_
*630 _0368_
*631 _0369_
*632 _0370_
*633 _0371_
*634 _0372_
*635 _0373_
*636 _0374_
*637 _0375_
*638 _0376_
*639 _0377_
*640 _0378_
*641 _0379_
*642 _0380_
*643 _0381_
*644 _0382_
*645 _0383_
*646 _0384_
*647 _0385_
*648 _0386_
*649 _0387_
*650 _0388_
*651 _0389_
*652 _0390_
*653 _0391_
*654 _0392_
*655 _0393_
*656 _0394_
*657 _0395_
*658 _0396_
*659 _0397_
*660 _0398_
*661 _0399_
*662 _0400_
*663 _0401_
*664 _0402_
*665 _0403_
*666 _0404_
*667 _0405_
*668 _0406_
*669 _0407_
*670 _0408_
*671 _0409_
*672 _0410_
*673 _0411_
*674 _0412_
*675 _0413_
*676 _0414_
*677 _0415_
*678 _0416_
*679 _0417_
*680 _0418_
*681 _0419_
*682 _0420_
*683 _0421_
*684 _0422_
*685 _0423_
*686 _0424_
*687 _0425_
*688 _0426_
*689 _0427_
*690 _0428_
*691 _0429_
*692 _0430_
*693 _0431_
*694 _0432_
*695 _0433_
*696 _0434_
*697 _0435_
*698 _0436_
*699 _0437_
*700 _0438_
*701 _0439_
*702 _0440_
*703 _0441_
*704 _0442_
*705 _0443_
*706 _0444_
*707 _0445_
*708 _0446_
*709 _0447_
*710 _0448_
*711 _0449_
*712 _0450_
*713 _0451_
*714 _0452_
*715 _0453_
*716 _0454_
*717 _0455_
*718 _0456_
*719 _0457_
*720 _0458_
*721 _0459_
*722 _0460_
*723 _0461_
*724 _0462_
*725 _0463_
*726 _0464_
*727 _0465_
*728 _0466_
*729 _0467_
*730 _0468_
*731 _0469_
*732 _0470_
*733 _0471_
*734 _0472_
*735 _0473_
*736 _0474_
*737 _0475_
*738 _0476_
*739 _0477_
*740 _0478_
*741 _0479_
*742 _0480_
*743 _0481_
*744 _0482_
*745 _0483_
*746 _0484_
*747 _0485_
*748 _0486_
*749 _0487_
*750 _0488_
*751 _0489_
*752 _0490_
*753 _0491_
*754 _0492_
*755 _0493_
*756 _0494_
*757 _0495_
*758 _0496_
*759 _0497_
*760 _0498_
*761 _0499_
*762 _0500_
*763 _0501_
*764 _0502_
*765 _0503_
*766 _0504_
*767 _0505_
*768 _0506_
*769 _0507_
*770 _0508_
*771 _0509_
*772 _0510_
*773 _0511_
*774 _0512_
*775 _0513_
*776 _0514_
*777 _0515_
*778 _0516_
*779 _0517_
*780 _0518_
*781 _0519_
*782 _0520_
*783 _0521_
*784 _0522_
*785 _0523_
*786 _0524_
*787 _0525_
*788 _0526_
*789 _0527_
*790 _0528_
*791 _0529_
*792 _0530_
*793 _0531_
*794 _0532_
*795 _0533_
*796 _0534_
*797 _0535_
*798 _0536_
*799 _0537_
*800 _0538_
*801 _0539_
*802 _0540_
*803 _0541_
*804 _0542_
*805 _0543_
*806 _0544_
*807 _0545_
*808 _0546_
*809 _0547_
*810 _0548_
*811 _0549_
*812 _0550_
*813 _0551_
*814 _0552_
*815 _0553_
*816 _0554_
*817 _0555_
*818 _0556_
*819 _0557_
*820 _0558_
*821 _0559_
*822 _0560_
*823 _0561_
*824 _0562_
*825 _0563_
*826 _0564_
*827 _0565_
*828 _0566_
*829 _0567_
*830 _0568_
*831 _0569_
*832 _0570_
*833 _0571_
*834 _0572_
*835 _0573_
*836 _0574_
*837 _0575_
*838 _0576_
*839 _0577_
*840 _0578_
*841 _0579_
*842 _0580_
*843 _0581_
*844 _0582_
*845 _0583_
*846 _0584_
*847 _0585_
*848 _0586_
*849 _0587_
*850 _0588_
*851 _0589_
*852 _0590_
*853 _0591_
*854 _0592_
*855 _0593_
*856 _0594_
*857 _0595_
*858 _0596_
*859 _0597_
*860 _0598_
*861 _0599_
*862 _0600_
*863 _0601_
*864 _0602_
*865 _0603_
*866 _0604_
*867 _0605_
*868 _0606_
*869 _0607_
*870 _0608_
*871 _0609_
*872 _0610_
*873 _0611_
*874 _0612_
*875 _0613_
*876 _0614_
*877 _0615_
*878 _0616_
*879 _0617_
*880 _0618_
*881 _0619_
*882 _0620_
*883 _0621_
*884 _0622_
*885 _0623_
*886 _0624_
*887 _0625_
*888 _0626_
*889 _0627_
*890 _0628_
*891 _0629_
*892 _0630_
*893 _0631_
*894 _0632_
*895 _0633_
*896 _0634_
*897 _0635_
*898 _0636_
*899 _0637_
*900 _0638_
*901 _0639_
*902 _0640_
*903 _0641_
*904 _0642_
*905 _0643_
*906 _0644_
*907 _0645_
*908 _0646_
*909 _0647_
*910 _0648_
*911 _0649_
*912 _0650_
*913 _0651_
*914 _0652_
*915 _0653_
*916 _0654_
*917 _0655_
*918 _0656_
*919 _0657_
*920 _0658_
*921 _0659_
*922 _0660_
*923 _0661_
*924 _0662_
*925 _0663_
*926 _0664_
*927 _0665_
*928 _0666_
*929 _0667_
*930 _0668_
*931 _0669_
*932 _0670_
*933 _0671_
*934 _0672_
*935 _0673_
*936 _0674_
*937 _0675_
*938 _0676_
*939 _0677_
*940 _0678_
*941 _0679_
*942 _0680_
*943 _0681_
*944 _0682_
*945 _0683_
*946 _0684_
*947 _0685_
*948 _0686_
*949 _0687_
*950 _0688_
*951 _0689_
*952 _0690_
*953 _0691_
*954 _0692_
*955 _0693_
*956 _0694_
*957 _0695_
*958 _0696_
*959 _0697_
*960 _0698_
*961 _0699_
*962 _0700_
*963 _0701_
*964 _0702_
*965 _0703_
*966 _0704_
*967 _0705_
*968 _0706_
*969 _0707_
*970 _0708_
*971 _0709_
*972 _0710_
*973 _0711_
*974 _0712_
*975 _0713_
*976 _0714_
*977 _0715_
*978 _0716_
*979 _0717_
*980 _0718_
*981 _0719_
*982 _0720_
*983 _0721_
*984 _0722_
*985 _0723_
*986 _0724_
*987 _0725_
*988 _0726_
*989 _0727_
*990 _0728_
*991 _0729_
*992 _0730_
*993 _0731_
*994 _0732_
*995 _0733_
*996 _0734_
*997 _0735_
*998 _0736_
*999 _0737_
*1000 _0738_
*1001 _0739_
*1002 _0740_
*1003 _0741_
*1004 _0742_
*1005 _0743_
*1006 _0744_
*1007 _0745_
*1008 _0746_
*1009 _0747_
*1010 _0748_
*1011 _0749_
*1012 _0750_
*1013 _0751_
*1014 _0752_
*1015 _0753_
*1016 _0754_
*1017 _0755_
*1018 _0756_
*1019 _0757_
*1020 _0758_
*1021 _0759_
*1022 _0760_
*1023 _0761_
*1024 _0762_
*1025 _0763_
*1026 _0764_
*1027 _0765_
*1028 _0766_
*1029 _0767_
*1030 _0768_
*1031 _0769_
*1032 _0770_
*1033 _0771_
*1034 _0772_
*1035 _0773_
*1036 _0774_
*1037 _0775_
*1038 _0776_
*1039 _0777_
*1040 _0778_
*1041 _0779_
*1042 _0780_
*1043 _0781_
*1044 _0782_
*1045 _0783_
*1046 _0784_
*1047 _0785_
*1048 _0786_
*1049 _0787_
*1050 _0788_
*1051 _0789_
*1052 _0790_
*1053 _0791_
*1054 _0792_
*1055 _0793_
*1056 _0794_
*1057 _0795_
*1058 _0796_
*1059 _0797_
*1060 _0798_
*1061 _0799_
*1062 _0800_
*1063 _0801_
*1064 _0802_
*1065 _0803_
*1066 _0804_
*1067 _0805_
*1068 _0806_
*1069 _0807_
*1070 _0808_
*1071 _0809_
*1072 _0810_
*1073 _0811_
*1074 _0812_
*1075 _0813_
*1076 _0814_
*1077 _0815_
*1078 _0816_
*1079 _0817_
*1080 _0818_
*1081 _0819_
*1082 _0820_
*1083 _0821_
*1084 _0822_
*1085 _0823_
*1086 _0824_
*1087 _0825_
*1088 _0826_
*1089 _0827_
*1090 _0828_
*1091 _0829_
*1092 _0830_
*1093 _0831_
*1094 _0832_
*1095 _0833_
*1096 _0834_
*1097 _0835_
*1098 _0836_
*1099 _0837_
*1100 _0838_
*1101 _0839_
*1102 _0840_
*1103 _0841_
*1104 _0842_
*1105 _0843_
*1106 _0844_
*1107 _0845_
*1108 _0846_
*1109 _0847_
*1110 _0848_
*1111 _0849_
*1112 _0850_
*1113 _0851_
*1114 _0852_
*1115 _0853_
*1116 _0854_
*1117 _0855_
*1118 _0856_
*1119 _0857_
*1120 _0858_
*1121 _0859_
*1122 _0860_
*1123 _0861_
*1124 _0862_
*1125 _0863_
*1126 _0864_
*1127 _0865_
*1128 _0866_
*1129 _0867_
*1130 _0868_
*1131 _0869_
*1132 _0870_
*1133 _0871_
*1134 _0872_
*1135 _0873_
*1136 _0874_
*1137 _0875_
*1138 _0876_
*1139 _0877_
*1140 _0878_
*1141 _0879_
*1142 _0880_
*1143 _0881_
*1144 _0882_
*1145 _0883_
*1146 _0884_
*1147 _0885_
*1148 _0886_
*1149 _0887_
*1150 _0888_
*1151 _0889_
*1152 _0890_
*1153 _0891_
*1154 _0892_
*1155 _0893_
*1156 _0894_
*1157 _0895_
*1158 _0896_
*1159 _0897_
*1160 _0898_
*1161 _0899_
*1162 _0900_
*1163 _0901_
*1164 _0902_
*1165 _0903_
*1166 _0904_
*1167 _0905_
*1168 _0906_
*1169 _0907_
*1170 _0908_
*1171 _0909_
*1172 _0910_
*1173 _0911_
*1174 _0912_
*1175 _0913_
*1176 _0914_
*1177 _0915_
*1178 _0916_
*1179 _0917_
*1180 _0918_
*1181 _0919_
*1182 _0920_
*1183 _0921_
*1184 _0922_
*1185 _0923_
*1186 _0924_
*1187 _0925_
*1188 _0926_
*1189 _0927_
*1190 _0928_
*1191 _0929_
*1192 _0930_
*1193 _0931_
*1194 _0932_
*1195 _0933_
*1196 _0934_
*1197 _0935_
*1198 _0936_
*1199 _0937_
*1200 _0938_
*1201 _0939_
*1202 _0940_
*1203 _0941_
*1204 _0942_
*1205 _0943_
*1206 _0944_
*1207 _0945_
*1208 _0946_
*1209 _0947_
*1210 _0948_
*1211 _0949_
*1212 _0950_
*1213 _0951_
*1214 _0952_
*1215 _0953_
*1216 _0954_
*1217 _0955_
*1218 _0956_
*1219 _0957_
*1220 _0958_
*1221 _0959_
*1222 _0960_
*1223 _0961_
*1224 _0962_
*1225 _0963_
*1226 _0964_
*1227 _0965_
*1228 _0966_
*1229 _0967_
*1230 _0968_
*1231 _0969_
*1232 _0970_
*1233 _0971_
*1234 _0972_
*1235 _0973_
*1236 _0974_
*1237 _0975_
*1238 _0976_
*1239 _0977_
*1240 _0978_
*1241 _0979_
*1242 clknet_0__0517_
*1243 clknet_0_clk
*1244 clknet_1_0__leaf__0517_
*1245 clknet_1_0__leaf_clk
*1246 clknet_1_1__leaf__0517_
*1247 clknet_1_1__leaf_clk
*1248 clknet_leaf_0_clk
*1249 clknet_leaf_10_clk
*1250 clknet_leaf_11_clk
*1251 clknet_leaf_12_clk
*1252 clknet_leaf_13_clk
*1253 clknet_leaf_1_clk
*1254 clknet_leaf_2_clk
*1255 clknet_leaf_3_clk
*1256 clknet_leaf_4_clk
*1257 clknet_leaf_5_clk
*1258 clknet_leaf_6_clk
*1259 clknet_leaf_7_clk
*1260 clknet_leaf_8_clk
*1261 clknet_leaf_9_clk
*1262 net1
*1263 net10
*1264 net100
*1265 net101
*1266 net102
*1267 net103
*1268 net104
*1269 net105
*1270 net106
*1271 net107
*1272 net108
*1273 net109
*1274 net110
*1275 net111
*1276 net112
*1277 net113
*1278 net114
*1279 net115
*1280 net116
*1281 net117
*1282 net118
*1283 net119
*1284 net120
*1285 net121
*1286 net122
*1287 net123
*1288 net124
*1289 net125
*1290 net126
*1291 net127
*1292 net128
*1293 net129
*1294 net130
*1295 net131
*1296 net132
*1297 net133
*1298 net134
*1299 net135
*1300 net136
*1301 net137
*1302 net138
*1303 net139
*1304 net140
*1305 net141
*1306 net142
*1307 net143
*1308 net144
*1309 net145
*1310 net146
*1311 net147
*1312 net148
*1313 net149
*1314 net150
*1315 net151
*1316 net152
*1317 net153
*1318 net154
*1319 net155
*1320 net156
*1321 net157
*1322 net158
*1323 net159
*1324 net160
*1325 net161
*1326 net162
*1327 net163
*1328 net164
*1329 net165
*1330 net166
*1331 net167
*1332 net168
*1333 net169
*1334 net170
*1335 net171
*1336 net172
*1337 net173
*1338 net174
*1339 net175
*1340 net176
*1341 net177
*1342 net178
*1343 net179
*1344 net180
*1345 net181
*1346 net182
*1347 net183
*1348 net184
*1349 net185
*1350 net186
*1351 net187
*1352 net188
*1353 net189
*1354 net190
*1355 net191
*1356 net192
*1357 net193
*1358 net194
*1359 net195
*1360 net196
*1361 net197
*1362 net198
*1363 net199
*1364 net2
*1365 net200
*1366 net201
*1367 net202
*1368 net203
*1369 net204
*1370 net205
*1371 net206
*1372 net207
*1373 net208
*1374 net209
*1375 net21
*1376 net210
*1377 net211
*1378 net212
*1379 net213
*1380 net214
*1381 net215
*1382 net216
*1383 net217
*1384 net218
*1385 net219
*1386 net22
*1387 net220
*1388 net221
*1389 net222
*1390 net223
*1391 net224
*1392 net225
*1393 net226
*1394 net227
*1395 net228
*1396 net229
*1397 net23
*1398 net230
*1399 net231
*1400 net232
*1401 net233
*1402 net234
*1403 net235
*1404 net236
*1405 net237
*1406 net238
*1407 net239
*1408 net24
*1409 net240
*1410 net241
*1411 net242
*1412 net243
*1413 net244
*1414 net245
*1415 net246
*1416 net247
*1417 net25
*1418 net26
*1419 net27
*1420 net28
*1421 net29
*1422 net3
*1423 net30
*1424 net31
*1425 net32
*1426 net33
*1427 net34
*1428 net35
*1429 net36
*1430 net37
*1431 net38
*1432 net39
*1433 net4
*1434 net40
*1435 net41
*1436 net42
*1437 net43
*1438 net5
*1439 net50
*1440 net51
*1441 net52
*1442 net53
*1443 net54
*1444 net55
*1445 net56
*1446 net57
*1447 net58
*1448 net59
*1449 net6
*1450 net60
*1451 net61
*1452 net62
*1453 net63
*1454 net64
*1455 net65
*1456 net66
*1457 net67
*1458 net68
*1459 net69
*1460 net7
*1461 net70
*1462 net71
*1463 net72
*1464 net73
*1465 net74
*1466 net75
*1467 net76
*1468 net77
*1469 net78
*1470 net79
*1471 net8
*1472 net80
*1473 net81
*1474 net82
*1475 net83
*1476 net84
*1477 net85
*1478 net86
*1479 net87
*1480 net88
*1481 net89
*1482 net9
*1483 net90
*1484 net91
*1485 net92
*1486 net93
*1487 net94
*1488 net95
*1489 net96
*1490 net97
*1491 net98
*1492 net99
*1493 ANTENNA_1
*1494 ANTENNA_2
*1495 ANTENNA_3
*1496 ANTENNA_4
*1497 ANTENNA_5
*1498 ANTENNA_6
*1499 ANTENNA_7
*1500 ANTENNA_8
*1501 ANTENNA_9
*1502 FILLER_0_0_109
*1503 FILLER_0_0_113
*1504 FILLER_0_0_130
*1505 FILLER_0_0_138
*1506 FILLER_0_0_149
*1507 FILLER_0_0_15
*1508 FILLER_0_0_180
*1509 FILLER_0_0_193
*1510 FILLER_0_0_213
*1511 FILLER_0_0_221
*1512 FILLER_0_0_241
*1513 FILLER_0_0_245
*1514 FILLER_0_0_253
*1515 FILLER_0_0_27
*1516 FILLER_0_0_29
*1517 FILLER_0_0_3
*1518 FILLER_0_0_307
*1519 FILLER_0_0_309
*1520 FILLER_0_0_321
*1521 FILLER_0_0_333
*1522 FILLER_0_0_337
*1523 FILLER_0_0_349
*1524 FILLER_0_0_47
*1525 FILLER_0_0_55
*1526 FILLER_0_0_85
*1527 FILLER_0_10_136
*1528 FILLER_0_10_141
*1529 FILLER_0_10_15
*1530 FILLER_0_10_161
*1531 FILLER_0_10_165
*1532 FILLER_0_10_194
*1533 FILLER_0_10_207
*1534 FILLER_0_10_239
*1535 FILLER_0_10_27
*1536 FILLER_0_10_282
*1537 FILLER_0_10_291
*1538 FILLER_0_10_297
*1539 FILLER_0_10_3
*1540 FILLER_0_10_349
*1541 FILLER_0_10_58
*1542 FILLER_0_10_70
*1543 FILLER_0_10_78
*1544 FILLER_0_10_93
*1545 FILLER_0_11_103
*1546 FILLER_0_11_116
*1547 FILLER_0_11_146
*1548 FILLER_0_11_15
*1549 FILLER_0_11_185
*1550 FILLER_0_11_19
*1551 FILLER_0_11_195
*1552 FILLER_0_11_204
*1553 FILLER_0_11_222
*1554 FILLER_0_11_253
*1555 FILLER_0_11_26
*1556 FILLER_0_11_270
*1557 FILLER_0_11_3
*1558 FILLER_0_11_30
*1559 FILLER_0_11_350
*1560 FILLER_0_11_53
*1561 FILLER_0_11_73
*1562 FILLER_0_11_81
*1563 FILLER_0_11_94
*1564 FILLER_0_12_125
*1565 FILLER_0_12_15
*1566 FILLER_0_12_153
*1567 FILLER_0_12_178
*1568 FILLER_0_12_221
*1569 FILLER_0_12_227
*1570 FILLER_0_12_237
*1571 FILLER_0_12_249
*1572 FILLER_0_12_253
*1573 FILLER_0_12_27
*1574 FILLER_0_12_276
*1575 FILLER_0_12_299
*1576 FILLER_0_12_3
*1577 FILLER_0_12_309
*1578 FILLER_0_12_324
*1579 FILLER_0_12_350
*1580 FILLER_0_12_37
*1581 FILLER_0_12_57
*1582 FILLER_0_12_83
*1583 FILLER_0_13_101
*1584 FILLER_0_13_11
*1585 FILLER_0_13_118
*1586 FILLER_0_13_184
*1587 FILLER_0_13_190
*1588 FILLER_0_13_199
*1589 FILLER_0_13_219
*1590 FILLER_0_13_261
*1591 FILLER_0_13_279
*1592 FILLER_0_13_29
*1593 FILLER_0_13_3
*1594 FILLER_0_13_337
*1595 FILLER_0_13_343
*1596 FILLER_0_13_350
*1597 FILLER_0_13_48
*1598 FILLER_0_13_57
*1599 FILLER_0_13_72
*1600 FILLER_0_13_76
*1601 FILLER_0_13_82
*1602 FILLER_0_14_101
*1603 FILLER_0_14_136
*1604 FILLER_0_14_156
*1605 FILLER_0_14_172
*1606 FILLER_0_14_19
*1607 FILLER_0_14_194
*1608 FILLER_0_14_235
*1609 FILLER_0_14_253
*1610 FILLER_0_14_257
*1611 FILLER_0_14_27
*1612 FILLER_0_14_292
*1613 FILLER_0_14_296
*1614 FILLER_0_14_302
*1615 FILLER_0_14_307
*1616 FILLER_0_14_324
*1617 FILLER_0_14_53
*1618 FILLER_0_14_65
*1619 FILLER_0_14_69
*1620 FILLER_0_14_83
*1621 FILLER_0_15_11
*1622 FILLER_0_15_110
*1623 FILLER_0_15_128
*1624 FILLER_0_15_148
*1625 FILLER_0_15_166
*1626 FILLER_0_15_182
*1627 FILLER_0_15_220
*1628 FILLER_0_15_250
*1629 FILLER_0_15_279
*1630 FILLER_0_15_290
*1631 FILLER_0_15_3
*1632 FILLER_0_15_38
*1633 FILLER_0_15_50
*1634 FILLER_0_15_70
*1635 FILLER_0_15_82
*1636 FILLER_0_16_104
*1637 FILLER_0_16_130
*1638 FILLER_0_16_15
*1639 FILLER_0_16_167
*1640 FILLER_0_16_197
*1641 FILLER_0_16_230
*1642 FILLER_0_16_249
*1643 FILLER_0_16_253
*1644 FILLER_0_16_29
*1645 FILLER_0_16_296
*1646 FILLER_0_16_3
*1647 FILLER_0_16_307
*1648 FILLER_0_16_38
*1649 FILLER_0_16_43
*1650 FILLER_0_16_66
*1651 FILLER_0_16_74
*1652 FILLER_0_17_102
*1653 FILLER_0_17_140
*1654 FILLER_0_17_149
*1655 FILLER_0_17_169
*1656 FILLER_0_17_179
*1657 FILLER_0_17_215
*1658 FILLER_0_17_233
*1659 FILLER_0_17_27
*1660 FILLER_0_17_285
*1661 FILLER_0_17_305
*1662 FILLER_0_17_323
*1663 FILLER_0_17_337
*1664 FILLER_0_17_350
*1665 FILLER_0_17_42
*1666 FILLER_0_17_55
*1667 FILLER_0_17_67
*1668 FILLER_0_17_79
*1669 FILLER_0_18_11
*1670 FILLER_0_18_139
*1671 FILLER_0_18_141
*1672 FILLER_0_18_158
*1673 FILLER_0_18_177
*1674 FILLER_0_18_197
*1675 FILLER_0_18_216
*1676 FILLER_0_18_251
*1677 FILLER_0_18_27
*1678 FILLER_0_18_298
*1679 FILLER_0_18_3
*1680 FILLER_0_18_314
*1681 FILLER_0_18_334
*1682 FILLER_0_18_47
*1683 FILLER_0_18_55
*1684 FILLER_0_18_65
*1685 FILLER_0_18_73
*1686 FILLER_0_18_81
*1687 FILLER_0_18_92
*1688 FILLER_0_19_110
*1689 FILLER_0_19_159
*1690 FILLER_0_19_172
*1691 FILLER_0_19_19
*1692 FILLER_0_19_199
*1693 FILLER_0_19_222
*1694 FILLER_0_19_273
*1695 FILLER_0_19_281
*1696 FILLER_0_19_327
*1697 FILLER_0_19_349
*1698 FILLER_0_19_38
*1699 FILLER_0_19_50
*1700 FILLER_0_19_62
*1701 FILLER_0_19_76
*1702 FILLER_0_19_87
*1703 FILLER_0_19_93