*SPEF "ieee 1481-1999"
*DESIGN "tt_um_currymottled"
*DATE "11:11:11 Fri 11 11, 1111"
*VENDOR "OpenRCX"
*PROGRAM "Parallel Extraction"
*VERSION "1.0"
*DESIGN_FLOW "NAME_SCOPE LOCAL" "PIN_CAP NONE"
*DIVIDER /
*DELIMITER :
*BUS_DELIMITER []
*T_UNIT 1 NS
*C_UNIT 1 PF
*R_UNIT 1 OHM
*L_UNIT 1 HENRY

*NAME_MAP
*3 clk
*4 ena
*5 rst_n
*6 ui_in[0]
*7 ui_in[1]
*8 ui_in[2]
*9 ui_in[3]
*10 ui_in[4]
*11 ui_in[5]
*12 ui_in[6]
*13 ui_in[7]
*14 uio_in[0]
*15 uio_in[1]
*16 uio_in[2]
*17 uio_in[3]
*18 uio_in[4]
*19 uio_in[5]
*20 uio_in[6]
*21 uio_in[7]
*22 net19
*23 net20
*24 net21
*25 net22
*26 net23
*27 net24
*28 net25
*29 net26
*30 uio_out[0]
*31 uio_out[1]
*32 uio_out[2]
*33 uio_out[3]
*34 uio_out[4]
*35 uio_out[5]
*36 uio_out[6]
*37 uio_out[7]
*38 net27
*39 net28
*40 net29
*41 net30
*42 net31
*43 net32
*44 net33
*45 net34
*46 _000_
*47 _001_
*48 _002_
*49 _003_
*50 _004_
*51 _005_
*52 _006_
*53 _007_
*54 _008_
*55 _009_
*56 _010_
*57 _011_
*58 _012_
*59 _013_
*60 _014_
*61 _015_
*62 _016_
*63 _017_
*64 _018_
*65 _019_
*66 _020_
*67 _021_
*68 _022_
*69 _023_
*70 _024_
*71 _025_
*72 _026_
*73 _027_
*74 _028_
*75 _029_
*76 _030_
*77 _031_
*78 _032_
*79 _033_
*80 _034_
*81 _035_
*82 _036_
*83 _037_
*84 _038_
*85 _039_
*86 _040_
*87 _041_
*88 _042_
*89 _043_
*90 _044_
*91 _045_
*92 _046_
*93 _047_
*94 _048_
*95 _049_
*96 _050_
*97 _051_
*98 clknet_0_clk
*99 clknet_1_0__leaf_clk
*100 clknet_1_1__leaf_clk
*101 net1
*102 net10
*103 net11
*104 net12
*105 net13
*106 net14
*107 net15
*108 net16
*109 net17
*110 net18
*111 net2
*112 net3
*113 net35
*114 net36
*115 net37
*116 net38
*117 net4
*118 net5
*119 net6
*120 net7
*121 net8
*122 net9
*123 FILLER_0_0_109
*124 FILLER_0_0_113
*125 FILLER_0_0_125
*126 FILLER_0_0_137
*127 FILLER_0_0_141
*128 FILLER_0_0_15
*129 FILLER_0_0_153
*130 FILLER_0_0_165
*131 FILLER_0_0_169
*132 FILLER_0_0_181
*133 FILLER_0_0_193
*134 FILLER_0_0_197
*135 FILLER_0_0_209
*136 FILLER_0_0_221
*137 FILLER_0_0_225
*138 FILLER_0_0_237
*139 FILLER_0_0_249
*140 FILLER_0_0_253
*141 FILLER_0_0_265
*142 FILLER_0_0_27
*143 FILLER_0_0_277
*144 FILLER_0_0_281
*145 FILLER_0_0_29
*146 FILLER_0_0_293
*147 FILLER_0_0_3
*148 FILLER_0_0_305
*149 FILLER_0_0_309
*150 FILLER_0_0_321
*151 FILLER_0_0_333
*152 FILLER_0_0_337
*153 FILLER_0_0_349
*154 FILLER_0_0_41
*155 FILLER_0_0_53
*156 FILLER_0_0_57
*157 FILLER_0_0_69
*158 FILLER_0_0_81
*159 FILLER_0_0_85
*160 FILLER_0_0_97
*161 FILLER_0_10_109
*162 FILLER_0_10_121
*163 FILLER_0_10_133
*164 FILLER_0_10_139
*165 FILLER_0_10_141
*166 FILLER_0_10_15
*167 FILLER_0_10_153
*168 FILLER_0_10_165
*169 FILLER_0_10_177
*170 FILLER_0_10_189
*171 FILLER_0_10_195
*172 FILLER_0_10_197
*173 FILLER_0_10_209
*174 FILLER_0_10_221
*175 FILLER_0_10_233
*176 FILLER_0_10_245
*177 FILLER_0_10_251
*178 FILLER_0_10_253
*179 FILLER_0_10_265
*180 FILLER_0_10_27
*181 FILLER_0_10_277
*182 FILLER_0_10_289
*183 FILLER_0_10_29
*184 FILLER_0_10_3
*185 FILLER_0_10_301
*186 FILLER_0_10_307
*187 FILLER_0_10_309
*188 FILLER_0_10_321
*189 FILLER_0_10_333
*190 FILLER_0_10_345
*191 FILLER_0_10_41
*192 FILLER_0_10_53
*193 FILLER_0_10_65
*194 FILLER_0_10_77
*195 FILLER_0_10_83
*196 FILLER_0_10_85
*197 FILLER_0_10_97
*198 FILLER_0_11_105
*199 FILLER_0_11_111
*200 FILLER_0_11_113
*201 FILLER_0_11_125
*202 FILLER_0_11_137
*203 FILLER_0_11_149
*204 FILLER_0_11_15
*205 FILLER_0_11_161
*206 FILLER_0_11_167
*207 FILLER_0_11_169
*208 FILLER_0_11_181
*209 FILLER_0_11_193
*210 FILLER_0_11_205
*211 FILLER_0_11_217
*212 FILLER_0_11_223
*213 FILLER_0_11_225
*214 FILLER_0_11_237
*215 FILLER_0_11_249
*216 FILLER_0_11_261
*217 FILLER_0_11_27
*218 FILLER_0_11_273
*219 FILLER_0_11_279
*220 FILLER_0_11_281
*221 FILLER_0_11_293
*222 FILLER_0_11_3
*223 FILLER_0_11_305
*224 FILLER_0_11_317
*225 FILLER_0_11_329
*226 FILLER_0_11_335
*227 FILLER_0_11_337
*228 FILLER_0_11_349
*229 FILLER_0_11_39
*230 FILLER_0_11_51
*231 FILLER_0_11_55
*232 FILLER_0_11_57
*233 FILLER_0_11_69
*234 FILLER_0_11_81
*235 FILLER_0_11_93
*236 FILLER_0_12_109
*237 FILLER_0_12_121
*238 FILLER_0_12_133
*239 FILLER_0_12_139
*240 FILLER_0_12_141
*241 FILLER_0_12_15
*242 FILLER_0_12_153
*243 FILLER_0_12_165
*244 FILLER_0_12_177
*245 FILLER_0_12_189
*246 FILLER_0_12_195
*247 FILLER_0_12_197
*248 FILLER_0_12_209
*249 FILLER_0_12_221
*250 FILLER_0_12_233
*251 FILLER_0_12_245
*252 FILLER_0_12_251
*253 FILLER_0_12_253
*254 FILLER_0_12_265
*255 FILLER_0_12_27
*256 FILLER_0_12_277
*257 FILLER_0_12_289
*258 FILLER_0_12_29
*259 FILLER_0_12_3
*260 FILLER_0_12_301
*261 FILLER_0_12_307
*262 FILLER_0_12_309
*263 FILLER_0_12_321
*264 FILLER_0_12_333
*265 FILLER_0_12_345
*266 FILLER_0_12_41
*267 FILLER_0_12_53
*268 FILLER_0_12_65
*269 FILLER_0_12_77
*270 FILLER_0_12_83
*271 FILLER_0_12_85
*272 FILLER_0_12_97
*273 FILLER_0_13_105
*274 FILLER_0_13_111
*275 FILLER_0_13_113
*276 FILLER_0_13_125
*277 FILLER_0_13_137
*278 FILLER_0_13_149
*279 FILLER_0_13_15
*280 FILLER_0_13_161
*281 FILLER_0_13_167
*282 FILLER_0_13_169
*283 FILLER_0_13_181
*284 FILLER_0_13_193
*285 FILLER_0_13_205
*286 FILLER_0_13_217
*287 FILLER_0_13_223
*288 FILLER_0_13_225
*289 FILLER_0_13_237
*290 FILLER_0_13_249
*291 FILLER_0_13_261
*292 FILLER_0_13_27
*293 FILLER_0_13_273
*294 FILLER_0_13_279
*295 FILLER_0_13_281
*296 FILLER_0_13_293
*297 FILLER_0_13_3
*298 FILLER_0_13_305
*299 FILLER_0_13_317
*300 FILLER_0_13_329
*301 FILLER_0_13_335
*302 FILLER_0_13_337
*303 FILLER_0_13_349
*304 FILLER_0_13_39
*305 FILLER_0_13_51
*306 FILLER_0_13_55
*307 FILLER_0_13_57
*308 FILLER_0_13_69
*309 FILLER_0_13_81
*310 FILLER_0_13_93
*311 FILLER_0_14_109
*312 FILLER_0_14_121
*313 FILLER_0_14_133
*314 FILLER_0_14_139
*315 FILLER_0_14_141
*316 FILLER_0_14_15
*317 FILLER_0_14_153
*318 FILLER_0_14_165
*319 FILLER_0_14_177
*320 FILLER_0_14_189
*321 FILLER_0_14_195
*322 FILLER_0_14_197
*323 FILLER_0_14_209
*324 FILLER_0_14_221
*325 FILLER_0_14_233
*326 FILLER_0_14_245
*327 FILLER_0_14_251
*328 FILLER_0_14_253
*329 FILLER_0_14_265
*330 FILLER_0_14_27
*331 FILLER_0_14_277
*332 FILLER_0_14_289
*333 FILLER_0_14_29
*334 FILLER_0_14_3
*335 FILLER_0_14_301
*336 FILLER_0_14_307
*337 FILLER_0_14_309
*338 FILLER_0_14_321
*339 FILLER_0_14_333
*340 FILLER_0_14_345
*341 FILLER_0_14_41
*342 FILLER_0_14_53
*343 FILLER_0_14_65
*344 FILLER_0_14_77
*345 FILLER_0_14_83
*346 FILLER_0_14_85
*347 FILLER_0_14_97
*348 FILLER_0_15_105
*349 FILLER_0_15_111
*350 FILLER_0_15_113
*351 FILLER_0_15_125
*352 FILLER_0_15_137
*353 FILLER_0_15_149
*354 FILLER_0_15_15
*355 FILLER_0_15_161
*356 FILLER_0_15_167
*357 FILLER_0_15_169
*358 FILLER_0_15_181
*359 FILLER_0_15_193
*360 FILLER_0_15_205
*361 FILLER_0_15_217
*362 FILLER_0_15_223
*363 FILLER_0_15_225
*364 FILLER_0_15_237
*365 FILLER_0_15_249
*366 FILLER_0_15_261
*367 FILLER_0_15_27
*368 FILLER_0_15_273
*369 FILLER_0_15_279
*370 FILLER_0_15_281
*371 FILLER_0_15_293
*372 FILLER_0_15_3
*373 FILLER_0_15_305
*374 FILLER_0_15_317
*375 FILLER_0_15_329
*376 FILLER_0_15_335
*377 FILLER_0_15_337
*378 FILLER_0_15_349
*379 FILLER_0_15_39
*380 FILLER_0_15_51
*381 FILLER_0_15_55
*382 FILLER_0_15_57
*383 FILLER_0_15_69
*384 FILLER_0_15_81
*385 FILLER_0_15_93
*386 FILLER_0_16_109
*387 FILLER_0_16_121
*388 FILLER_0_16_133
*389 FILLER_0_16_139
*390 FILLER_0_16_141
*391 FILLER_0_16_15
*392 FILLER_0_16_153
*393 FILLER_0_16_165
*394 FILLER_0_16_177
*395 FILLER_0_16_189
*396 FILLER_0_16_195
*397 FILLER_0_16_197
*398 FILLER_0_16_209
*399 FILLER_0_16_221
*400 FILLER_0_16_233
*401 FILLER_0_16_245
*402 FILLER_0_16_251
*403 FILLER_0_16_253
*404 FILLER_0_16_265
*405 FILLER_0_16_27
*406 FILLER_0_16_277
*407 FILLER_0_16_289
*408 FILLER_0_16_29
*409 FILLER_0_16_3
*410 FILLER_0_16_301
*411 FILLER_0_16_307
*412 FILLER_0_16_309
*413 FILLER_0_16_321
*414 FILLER_0_16_333
*415 FILLER_0_16_345
*416 FILLER_0_16_41
*417 FILLER_0_16_53
*418 FILLER_0_16_65
*419 FILLER_0_16_77
*420 FILLER_0_16_83
*421 FILLER_0_16_85
*422 FILLER_0_16_97
*423 FILLER_0_17_105
*424 FILLER_0_17_111
*425 FILLER_0_17_113
*426 FILLER_0_17_125
*427 FILLER_0_17_137
*428 FILLER_0_17_149
*429 FILLER_0_17_15
*430 FILLER_0_17_161
*431 FILLER_0_17_167
*432 FILLER_0_17_169
*433 FILLER_0_17_181
*434 FILLER_0_17_193
*435 FILLER_0_17_205
*436 FILLER_0_17_217
*437 FILLER_0_17_223
*438 FILLER_0_17_225
*439 FILLER_0_17_237
*440 FILLER_0_17_249
*441 FILLER_0_17_261
*442 FILLER_0_17_27
*443 FILLER_0_17_273
*444 FILLER_0_17_279
*445 FILLER_0_17_281
*446 FILLER_0_17_293
*447 FILLER_0_17_3
*448 FILLER_0_17_305
*449 FILLER_0_17_317
*450 FILLER_0_17_329
*451 FILLER_0_17_335
*452 FILLER_0_17_337
*453 FILLER_0_17_349
*454 FILLER_0_17_39
*455 FILLER_0_17_51
*456 FILLER_0_17_55
*457 FILLER_0_17_57
*458 FILLER_0_17_69
*459 FILLER_0_17_81
*460 FILLER_0_17_93
*461 FILLER_0_18_109
*462 FILLER_0_18_121
*463 FILLER_0_18_133
*464 FILLER_0_18_139
*465 FILLER_0_18_141
*466 FILLER_0_18_15
*467 FILLER_0_18_153
*468 FILLER_0_18_165
*469 FILLER_0_18_177
*470 FILLER_0_18_189
*471 FILLER_0_18_195
*472 FILLER_0_18_197
*473 FILLER_0_18_209
*474 FILLER_0_18_221
*475 FILLER_0_18_233
*476 FILLER_0_18_245
*477 FILLER_0_18_251
*478 FILLER_0_18_253
*479 FILLER_0_18_265
*480 FILLER_0_18_27
*481 FILLER_0_18_277
*482 FILLER_0_18_289
*483 FILLER_0_18_29
*484 FILLER_0_18_3
*485 FILLER_0_18_301
*486 FILLER_0_18_307
*487 FILLER_0_18_309
*488 FILLER_0_18_321
*489 FILLER_0_18_333
*490 FILLER_0_18_345
*491 FILLER_0_18_41
*492 FILLER_0_18_53
*493 FILLER_0_18_65
*494 FILLER_0_18_77
*495 FILLER_0_18_83
*496 FILLER_0_18_85
*497 FILLER_0_18_97
*498 FILLER_0_19_105
*499 FILLER_0_19_111
*500 FILLER_0_19_113
*501 FILLER_0_19_125
*502 FILLER_0_19_137
*503 FILLER_0_19_149
*504 FILLER_0_19_15
*505 FILLER_0_19_161
*506 FILLER_0_19_167
*507 FILLER_0_19_169
*508 FILLER_0_19_181
*509 FILLER_0_19_193
*510 FILLER_0_19_205
*511 FILLER_0_19_217
*512 FILLER_0_19_223
*513 FILLER_0_19_225
*514 FILLER_0_19_237
*515 FILLER_0_19_249
*516 FILLER_0_19_261
*517 FILLER_0_19_27
*518 FILLER_0_19_273
*519 FILLER_0_19_279
*520 FILLER_0_19_281
*521 FILLER_0_19_293
*522 FILLER_0_19_3
*523 FILLER_0_19_305
*524 FILLER_0_19_317
*525 FILLER_0_19_329
*526 FILLER_0_19_335
*527 FILLER_0_19_337
*528 FILLER_0_19_349
*529 FILLER_0_19_39
*530 FILLER_0_19_51
*531 FILLER_0_19_55
*532 FILLER_0_19_57
*533 FILLER_0_19_69
*534 FILLER_0_19_81
*535 FILLER_0_19_93
*536 FILLER_0_1_105
*537 FILLER_0_1_111
*538 FILLER_0_1_113
*539 FILLER_0_1_125
*540 FILLER_0_1_137
*541 FILLER_0_1_149
*542 FILLER_0_1_15
*543 FILLER_0_1_161
*544 FILLER_0_1_167
*545 FILLER_0_1_169
*546 FILLER_0_1_181
*547 FILLER_0_1_193
*548 FILLER_0_1_205
*549 FILLER_0_1_217
*550 FILLER_0_1_223
*551 FILLER_0_1_225
*552 FILLER_0_1_237
*553 FILLER_0_1_249
*554 FILLER_0_1_261
*555 FILLER_0_1_27
*556 FILLER_0_1_273
*557 FILLER_0_1_279
*558 FILLER_0_1_281
*559 FILLER_0_1_293
*560 FILLER_0_1_3
*561 FILLER_0_1_305
*562 FILLER_0_1_317
*563 FILLER_0_1_329
*564 FILLER_0_1_335
*565 FILLER_0_1_337
*566 FILLER_0_1_349
*567 FILLER_0_1_39
*568 FILLER_0_1_51
*569 FILLER_0_1_55
*570 FILLER_0_1_57
*571 FILLER_0_1_69
*572 FILLER_0_1_81
*573 FILLER_0_1_93
*574 FILLER_0_20_109
*575 FILLER_0_20_121
*576 FILLER_0_20_133
*577 FILLER_0_20_139
*578 FILLER_0_20_141
*579 FILLER_0_20_15
*580 FILLER_0_20_153
*581 FILLER_0_20_165
*582 FILLER_0_20_177
*583 FILLER_0_20_189
*584 FILLER_0_20_195
*585 FILLER_0_20_197
*586 FILLER_0_20_209
*587 FILLER_0_20_221
*588 FILLER_0_20_233
*589 FILLER_0_20_245
*590 FILLER_0_20_251
*591 FILLER_0_20_253
*592 FILLER_0_20_265
*593 FILLER_0_20_27
*594 FILLER_0_20_277
*595 FILLER_0_20_289
*596 FILLER_0_20_29
*597 FILLER_0_20_3
*598 FILLER_0_20_301
*599 FILLER_0_20_307
*600 FILLER_0_20_309
*601 FILLER_0_20_321
*602 FILLER_0_20_333
*603 FILLER_0_20_345
*604 FILLER_0_20_41
*605 FILLER_0_20_53
*606 FILLER_0_20_65
*607 FILLER_0_20_77
*608 FILLER_0_20_83
*609 FILLER_0_20_85
*610 FILLER_0_20_97
*611 FILLER_0_21_105
*612 FILLER_0_21_111
*613 FILLER_0_21_113
*614 FILLER_0_21_125
*615 FILLER_0_21_137
*616 FILLER_0_21_149
*617 FILLER_0_21_15
*618 FILLER_0_21_161
*619 FILLER_0_21_167
*620 FILLER_0_21_169
*621 FILLER_0_21_181
*622 FILLER_0_21_193
*623 FILLER_0_21_205
*624 FILLER_0_21_217
*625 FILLER_0_21_223
*626 FILLER_0_21_225
*627 FILLER_0_21_237
*628 FILLER_0_21_249
*629 FILLER_0_21_261
*630 FILLER_0_21_27
*631 FILLER_0_21_273
*632 FILLER_0_21_279
*633 FILLER_0_21_281
*634 FILLER_0_21_293
*635 FILLER_0_21_3
*636 FILLER_0_21_305
*637 FILLER_0_21_317
*638 FILLER_0_21_329
*639 FILLER_0_21_335
*640 FILLER_0_21_337
*641 FILLER_0_21_349
*642 FILLER_0_21_39
*643 FILLER_0_21_51
*644 FILLER_0_21_55
*645 FILLER_0_21_57
*646 FILLER_0_21_69
*647 FILLER_0_21_81
*648 FILLER_0_21_93
*649 FILLER_0_22_109
*650 FILLER_0_22_121
*651 FILLER_0_22_133
*652 FILLER_0_22_139
*653 FILLER_0_22_141
*654 FILLER_0_22_15
*655 FILLER_0_22_153
*656 FILLER_0_22_165
*657 FILLER_0_22_177
*658 FILLER_0_22_189
*659 FILLER_0_22_195
*660 FILLER_0_22_197
*661 FILLER_0_22_209
*662 FILLER_0_22_221
*663 FILLER_0_22_233
*664 FILLER_0_22_245
*665 FILLER_0_22_251
*666 FILLER_0_22_253
*667 FILLER_0_22_265
*668 FILLER_0_22_27
*669 FILLER_0_22_277
*670 FILLER_0_22_289
*671 FILLER_0_22_29
*672 FILLER_0_22_3
*673 FILLER_0_22_301
*674 FILLER_0_22_307
*675 FILLER_0_22_309
*676 FILLER_0_22_321
*677 FILLER_0_22_333
*678 FILLER_0_22_345
*679 FILLER_0_22_41
*680 FILLER_0_22_53
*681 FILLER_0_22_65
*682 FILLER_0_22_77
*683 FILLER_0_22_83
*684 FILLER_0_22_85
*685 FILLER_0_22_97
*686 FILLER_0_23_105
*687 FILLER_0_23_111
*688 FILLER_0_23_113
*689 FILLER_0_23_125
*690 FILLER_0_23_137
*691 FILLER_0_23_149
*692 FILLER_0_23_15
*693 FILLER_0_23_161
*694 FILLER_0_23_167
*695 FILLER_0_23_169
*696 FILLER_0_23_181
*697 FILLER_0_23_193
*698 FILLER_0_23_205
*699 FILLER_0_23_217
*700 FILLER_0_23_223
*701 FILLER_0_23_225
*702 FILLER_0_23_237
*703 FILLER_0_23_249
*704 FILLER_0_23_261
*705 FILLER_0_23_27
*706 FILLER_0_23_273
*707 FILLER_0_23_279
*708 FILLER_0_23_281
*709 FILLER_0_23_293
*710 FILLER_0_23_3
*711 FILLER_0_23_305
*712 FILLER_0_23_317
*713 FILLER_0_23_329
*714 FILLER_0_23_335
*715 FILLER_0_23_337
*716 FILLER_0_23_349
*717 FILLER_0_23_39
*718 FILLER_0_23_51
*719 FILLER_0_23_55
*720 FILLER_0_23_57
*721 FILLER_0_23_69
*722 FILLER_0_23_81
*723 FILLER_0_23_93
*724 FILLER_0_24_109
*725 FILLER_0_24_121
*726 FILLER_0_24_133
*727 FILLER_0_24_139
*728 FILLER_0_24_141
*729 FILLER_0_24_15
*730 FILLER_0_24_153
*731 FILLER_0_24_165
*732 FILLER_0_24_177
*733 FILLER_0_24_189
*734 FILLER_0_24_195
*735 FILLER_0_24_197
*736 FILLER_0_24_209
*737 FILLER_0_24_221
*738 FILLER_0_24_233
*739 FILLER_0_24_245
*740 FILLER_0_24_251
*741 FILLER_0_24_253
*742 FILLER_0_24_265
*743 FILLER_0_24_27
*744 FILLER_0_24_277
*745 FILLER_0_24_289
*746 FILLER_0_24_29
*747 FILLER_0_24_3
*748 FILLER_0_24_301
*749 FILLER_0_24_307
*750 FILLER_0_24_309
*751 FILLER_0_24_321
*752 FILLER_0_24_333
*753 FILLER_0_24_345
*754 FILLER_0_24_41
*755 FILLER_0_24_53
*756 FILLER_0_24_65
*757 FILLER_0_24_77
*758 FILLER_0_24_83
*759 FILLER_0_24_85
*760 FILLER_0_24_97
*761 FILLER_0_25_105
*762 FILLER_0_25_111
*763 FILLER_0_25_113
*764 FILLER_0_25_125
*765 FILLER_0_25_137
*766 FILLER_0_25_149
*767 FILLER_0_25_15
*768 FILLER_0_25_161
*769 FILLER_0_25_167
*770 FILLER_0_25_169
*771 FILLER_0_25_181
*772 FILLER_0_25_193
*773 FILLER_0_25_205
*774 FILLER_0_25_217
*775 FILLER_0_25_223
*776 FILLER_0_25_225
*777 FILLER_0_25_237
*778 FILLER_0_25_249
*779 FILLER_0_25_261
*780 FILLER_0_25_27
*781 FILLER_0_25_273
*782 FILLER_0_25_279
*783 FILLER_0_25_281
*784 FILLER_0_25_293
*785 FILLER_0_25_3
*786 FILLER_0_25_305
*787 FILLER_0_25_317
*788 FILLER_0_25_329
*789 FILLER_0_25_335
*790 FILLER_0_25_337
*791 FILLER_0_25_349
*792 FILLER_0_25_39
*793 FILLER_0_25_51
*794 FILLER_0_25_55
*795 FILLER_0_25_57
*796 FILLER_0_25_69
*797 FILLER_0_25_81
*798 FILLER_0_25_93
*799 FILLER_0_26_109
*800 FILLER_0_26_121
*801 FILLER_0_26_133
*802 FILLER_0_26_139
*803 FILLER_0_26_141
*804 FILLER_0_26_15
*805 FILLER_0_26_153
*806 FILLER_0_26_165
*807 FILLER_0_26_177
*808 FILLER_0_26_189
*809 FILLER_0_26_195
*810 FILLER_0_26_197
*811 FILLER_0_26_209
*812 FILLER_0_26_221
*813 FILLER_0_26_233
*814 FILLER_0_26_245
*815 FILLER_0_26_251
*816 FILLER_0_26_253
*817 FILLER_0_26_265
*818 FILLER_0_26_27
*819 FILLER_0_26_277
*820 FILLER_0_26_289
*821 FILLER_0_26_29
*822 FILLER_0_26_3
*823 FILLER_0_26_301
*824 FILLER_0_26_307
*825 FILLER_0_26_309
*826 FILLER_0_26_321
*827 FILLER_0_26_333
*828 FILLER_0_26_345
*829 FILLER_0_26_41
*830 FILLER_0_26_53
*831 FILLER_0_26_65
*832 FILLER_0_26_77
*833 FILLER_0_26_83
*834 FILLER_0_26_85
*835 FILLER_0_26_97
*836 FILLER_0_27_105
*837 FILLER_0_27_111
*838 FILLER_0_27_113
*839 FILLER_0_27_125
*840 FILLER_0_27_137
*841 FILLER_0_27_149
*842 FILLER_0_27_15
*843 FILLER_0_27_161
*844 FILLER_0_27_167
*845 FILLER_0_27_169
*846 FILLER_0_27_181
*847 FILLER_0_27_193
*848 FILLER_0_27_205
*849 FILLER_0_27_217
*850 FILLER_0_27_223
*851 FILLER_0_27_225
*852 FILLER_0_27_237
*853 FILLER_0_27_249
*854 FILLER_0_27_261
*855 FILLER_0_27_27
*856 FILLER_0_27_273
*857 FILLER_0_27_279
*858 FILLER_0_27_281
*859 FILLER_0_27_293
*860 FILLER_0_27_3
*861 FILLER_0_27_305
*862 FILLER_0_27_317
*863 FILLER_0_27_329
*864 FILLER_0_27_335
*865 FILLER_0_27_337
*866 FILLER_0_27_349
*867 FILLER_0_27_39
*868 FILLER_0_27_51
*869 FILLER_0_27_55
*870 FILLER_0_27_57
*871 FILLER_0_27_69
*872 FILLER_0_27_81
*873 FILLER_0_27_93
*874 FILLER_0_28_109
*875 FILLER_0_28_121
*876 FILLER_0_28_133
*877 FILLER_0_28_139
*878 FILLER_0_28_141
*879 FILLER_0_28_15
*880 FILLER_0_28_153
*881 FILLER_0_28_165
*882 FILLER_0_28_177
*883 FILLER_0_28_189
*884 FILLER_0_28_195
*885 FILLER_0_28_197
*886 FILLER_0_28_209
*887 FILLER_0_28_221
*888 FILLER_0_28_233
*889 FILLER_0_28_245
*890 FILLER_0_28_251
*891 FILLER_0_28_253
*892 FILLER_0_28_265
*893 FILLER_0_28_27
*894 FILLER_0_28_277
*895 FILLER_0_28_289
*896 FILLER_0_28_29
*897 FILLER_0_28_3
*898 FILLER_0_28_301
*899 FILLER_0_28_307
*900 FILLER_0_28_309
*901 FILLER_0_28_321
*902 FILLER_0_28_333
*903 FILLER_0_28_345
*904 FILLER_0_28_41
*905 FILLER_0_28_53
*906 FILLER_0_28_65
*907 FILLER_0_28_77
*908 FILLER_0_28_83
*909 FILLER_0_28_85
*910 FILLER_0_28_97
*911 FILLER_0_29_105
*912 FILLER_0_29_111
*913 FILLER_0_29_113
*914 FILLER_0_29_125
*915 FILLER_0_29_137
*916 FILLER_0_29_149
*917 FILLER_0_29_15
*918 FILLER_0_29_161
*919 FILLER_0_29_167
*920 FILLER_0_29_169
*921 FILLER_0_29_181
*922 FILLER_0_29_193
*923 FILLER_0_29_205
*924 FILLER_0_29_217
*925 FILLER_0_29_223
*926 FILLER_0_29_225
*927 FILLER_0_29_237
*928 FILLER_0_29_249
*929 FILLER_0_29_261
*930 FILLER_0_29_27
*931 FILLER_0_29_273
*932 FILLER_0_29_279
*933 FILLER_0_29_281
*934 FILLER_0_29_293
*935 FILLER_0_29_3
*936 FILLER_0_29_305
*937 FILLER_0_29_317
*938 FILLER_0_29_329
*939 FILLER_0_29_335
*940 FILLER_0_29_337
*941 FILLER_0_29_349
*942 FILLER_0_29_39
*943 FILLER_0_29_51
*944 FILLER_0_29_55
*945 FILLER_0_29_57
*946 FILLER_0_29_69
*947 FILLER_0_29_81
*948 FILLER_0_29_93
*949 FILLER_0_2_109
*950 FILLER_0_2_121
*951 FILLER_0_2_133
*952 FILLER_0_2_139
*953 FILLER_0_2_141
*954 FILLER_0_2_15
*955 FILLER_0_2_153
*956 FILLER_0_2_165
*957 FILLER_0_2_177
*958 FILLER_0_2_189
*959 FILLER_0_2_195
*960 FILLER_0_2_197
*961 FILLER_0_2_209
*962 FILLER_0_2_221
*963 FILLER_0_2_233
*964 FILLER_0_2_245
*965 FILLER_0_2_251
*966 FILLER_0_2_253
*967 FILLER_0_2_265
*968 FILLER_0_2_27
*969 FILLER_0_2_277
*970 FILLER_0_2_289
*971 FILLER_0_2_29
*972 FILLER_0_2_3
*973 FILLER_0_2_301
*974 FILLER_0_2_307
*975 FILLER_0_2_309
*976 FILLER_0_2_321
*977 FILLER_0_2_333
*978 FILLER_0_2_345
*979 FILLER_0_2_41
*980 FILLER_0_2_53
*981 FILLER_0_2_65
*982 FILLER_0_2_77
*983 FILLER_0_2_83
*984 FILLER_0_2_85
*985 FILLER_0_2_97
*986 FILLER_0_30_109
*987 FILLER_0_30_121
*988 FILLER_0_30_133
*989 FILLER_0_30_139
*990 FILLER_0_30_141
*991 FILLER_0_30_15
*992 FILLER_0_30_153
*993 FILLER_0_30_165
*994 FILLER_0_30_177
*995 FILLER_0_30_189
*996 FILLER_0_30_195
*997 FILLER_0_30_197
*998 FILLER_0_30_209
*999 FILLER_0_30_221
*1000 FILLER_0_30_233
*1001 FILLER_0_30_245
*1002 FILLER_0_30_251
*1003 FILLER_0_30_253
*1004 FILLER_0_30_265
*1005 FILLER_0_30_27
*1006 FILLER_0_30_277
*1007 FILLER_0_30_289
*1008 FILLER_0_30_29
*1009 FILLER_0_30_3
*1010 FILLER_0_30_301
*1011 FILLER_0_30_307
*1012 FILLER_0_30_309
*1013 FILLER_0_30_321
*1014 FILLER_0_30_333
*1015 FILLER_0_30_345
*1016 FILLER_0_30_41
*1017 FILLER_0_30_53
*1018 FILLER_0_30_65
*1019 FILLER_0_30_77
*1020 FILLER_0_30_83
*1021 FILLER_0_30_85
*1022 FILLER_0_30_97
*1023 FILLER_0_31_105
*1024 FILLER_0_31_111
*1025 FILLER_0_31_113
*1026 FILLER_0_31_125
*1027 FILLER_0_31_137
*1028 FILLER_0_31_149
*1029 FILLER_0_31_15
*1030 FILLER_0_31_161
*1031 FILLER_0_31_167
*1032 FILLER_0_31_169
*1033 FILLER_0_31_181
*1034 FILLER_0_31_193
*1035 FILLER_0_31_205
*1036 FILLER_0_31_217
*1037 FILLER_0_31_223
*1038 FILLER_0_31_225
*1039 FILLER_0_31_237
*1040 FILLER_0_31_249
*1041 FILLER_0_31_261
*1042 FILLER_0_31_27
*1043 FILLER_0_31_273
*1044 FILLER_0_31_279
*1045 FILLER_0_31_281
*1046 FILLER_0_31_293
*1047 FILLER_0_31_3
*1048 FILLER_0_31_305
*1049 FILLER_0_31_317
*1050 FILLER_0_31_329
*1051 FILLER_0_31_335
*1052 FILLER_0_31_337
*1053 FILLER_0_31_349
*1054 FILLER_0_31_39
*1055 FILLER_0_31_51
*1056 FILLER_0_31_55
*1057 FILLER_0_31_57
*1058 FILLER_0_31_69
*1059 FILLER_0_31_81
*1060 FILLER_0_31_93
*1061 FILLER_0_32_109
*1062 FILLER_0_32_121
*1063 FILLER_0_32_133
*1064 FILLER_0_32_139
*1065 FILLER_0_32_141
*1066 FILLER_0_32_15
*1067 FILLER_0_32_153
*1068 FILLER_0_32_161
*1069 FILLER_0_32_184
*1070 FILLER_0_32_197
*1071 FILLER_0_32_209
*1072 FILLER_0_32_221
*1073 FILLER_0_32_233
*1074 FILLER_0_32_245
*1075 FILLER_0_32_251
*1076 FILLER_0_32_253
*1077 FILLER_0_32_265
*1078 FILLER_0_32_27
*1079 FILLER_0_32_29
*1080 FILLER_0_32_297
*1081 FILLER_0_32_3
*1082 FILLER_0_32_305
*1083 FILLER_0_32_309
*1084 FILLER_0_32_321
*1085 FILLER_0_32_333
*1086 FILLER_0_32_345
*1087 FILLER_0_32_41
*1088 FILLER_0_32_53
*1089 FILLER_0_32_65
*1090 FILLER_0_32_77
*1091 FILLER_0_32_83
*1092 FILLER_0_32_85
*1093 FILLER_0_32_97
*1094 FILLER_0_33_105
*1095 FILLER_0_33_111
*1096 FILLER_0_33_113
*1097 FILLER_0_33_125
*1098 FILLER_0_33_137
*1099 FILLER_0_33_149
*1100 FILLER_0_33_15
*1101 FILLER_0_33_161
*1102 FILLER_0_33_167
*1103 FILLER_0_33_169
*1104 FILLER_0_33_181
*1105 FILLER_0_33_193
*1106 FILLER_0_33_205
*1107 FILLER_0_33_217
*1108 FILLER_0_33_223
*1109 FILLER_0_33_225
*1110 FILLER_0_33_237
*1111 FILLER_0_33_249
*1112 FILLER_0_33_261
*1113 FILLER_0_33_27
*1114 FILLER_0_33_273
*1115 FILLER_0_33_279
*1116 FILLER_0_33_281
*1117 FILLER_0_33_293
*1118 FILLER_0_33_3
*1119 FILLER_0_33_305
*1120 FILLER_0_33_317
*1121 FILLER_0_33_329
*1122 FILLER_0_33_335
*1123 FILLER_0_33_337
*1124 FILLER_0_33_349
*1125 FILLER_0_33_39
*1126 FILLER_0_33_51
*1127 FILLER_0_33_55
*1128 FILLER_0_33_57
*1129 FILLER_0_33_69
*1130 FILLER_0_33_81
*1131 FILLER_0_33_93
*1132 FILLER_0_34_109
*1133 FILLER_0_34_117
*1134 FILLER_0_34_123
*1135 FILLER_0_34_135
*1136 FILLER_0_34_139
*1137 FILLER_0_34_141
*1138 FILLER_0_34_15
*1139 FILLER_0_34_153
*1140 FILLER_0_34_157
*1141 FILLER_0_34_177
*1142 FILLER_0_34_189
*1143 FILLER_0_34_195
*1144 FILLER_0_34_197
*1145 FILLER_0_34_209
*1146 FILLER_0_34_221
*1147 FILLER_0_34_233
*1148 FILLER_0_34_245
*1149 FILLER_0_34_251
*1150 FILLER_0_34_253
*1151 FILLER_0_34_265
*1152 FILLER_0_34_27
*1153 FILLER_0_34_277
*1154 FILLER_0_34_29
*1155 FILLER_0_34_3
*1156 FILLER_0_34_309
*1157 FILLER_0_34_321
*1158 FILLER_0_34_333
*1159 FILLER_0_34_345
*1160 FILLER_0_34_41
*1161 FILLER_0_34_53
*1162 FILLER_0_34_65
*1163 FILLER_0_34_77
*1164 FILLER_0_34_83
*1165 FILLER_0_34_85
*1166 FILLER_0_34_97
*1167 FILLER_0_35_105
*1168 FILLER_0_35_111
*1169 FILLER_0_35_113
*1170 FILLER_0_35_144
*1171 FILLER_0_35_15
*1172 FILLER_0_35_156
*1173 FILLER_0_35_166
*1174 FILLER_0_35_180
*1175 FILLER_0_35_193
*1176 FILLER_0_35_201
*1177 FILLER_0_35_221
*1178 FILLER_0_35_232
*1179 FILLER_0_35_244
*1180 FILLER_0_35_252
*1181 FILLER_0_35_258
*1182 FILLER_0_35_27
*1183 FILLER_0_35_275
*1184 FILLER_0_35_279
*1185 FILLER_0_35_3
*1186 FILLER_0_35_300
*1187 FILLER_0_35_312
*1188 FILLER_0_35_324
*1189 FILLER_0_35_337
*1190 FILLER_0_35_349
*1191 FILLER_0_35_39
*1192 FILLER_0_35_51
*1193 FILLER_0_35_55
*1194 FILLER_0_35_57
*1195 FILLER_0_35_69
*1196 FILLER_0_35_81
*1197 FILLER_0_35_93
*1198 FILLER_0_36_109
*1199 FILLER_0_36_121
*1200 FILLER_0_36_133
*1201 FILLER_0_36_141
*1202 FILLER_0_36_15
*1203 FILLER_0_36_151
*1204 FILLER_0_36_163
*1205 FILLER_0_36_168
*1206 FILLER_0_36_180
*1207 FILLER_0_36_192
*1208 FILLER_0_36_197
*1209 FILLER_0_36_209
*1210 FILLER_0_36_217
*1211 FILLER_0_36_224
*1212 FILLER_0_36_257
*1213 FILLER_0_36_269
*1214 FILLER_0_36_27
*1215 FILLER_0_36_285
*1216 FILLER_0_36_29
*1217 FILLER_0_36_297
*1218 FILLER_0_36_3
*1219 FILLER_0_36_305
*1220 FILLER_0_36_317
*1221 FILLER_0_36_329
*1222 FILLER_0_36_341
*1223 FILLER_0_36_349
*1224 FILLER_0_36_41
*1225 FILLER_0_36_53
*1226 FILLER_0_36_65
*1227 FILLER_0_36_77
*1228 FILLER_0_36_83
*1229 FILLER_0_36_85
*1230 FILLER_0_36_97
*1231 FILLER_0_37_105
*1232 FILLER_0_37_111
*1233 FILLER_0_37_113
*1234 FILLER_0_37_117
*1235 FILLER_0_37_15
*1236 FILLER_0_37_178
*1237 FILLER_0_37_193
*1238 FILLER_0_37_197
*1239 FILLER_0_37_201
*1240 FILLER_0_37_205
*1241 FILLER_0_37_211
*1242 FILLER_0_37_215
*1243 FILLER_0_37_222
*1244 FILLER_0_37_225
*1245 FILLER_0_37_231
*1246 FILLER_0_37_243
*1247 FILLER_0_37_258
*1248 FILLER_0_37_262
*1249 FILLER_0_37_266
*1250 FILLER_0_37_27
*1251 FILLER_0_37_278
*1252 FILLER_0_37_288
*1253 FILLER_0_37_3
*1254 FILLER_0_37_309
*1255 FILLER_0_37_337
*1256 FILLER_0_37_349
*1257 FILLER_0_37_39
*1258 FILLER_0_37_51
*1259 FILLER_0_37_55
*1260 FILLER_0_37_57
*1261 FILLER_0_37_69
*1262 FILLER_0_37_81
*1263 FILLER_0_37_93
*1264 FILLER_0_38_109
*1265 FILLER_0_38_113
*1266 FILLER_0_38_133
*1267 FILLER_0_38_139
*1268 FILLER_0_38_14
*1269 FILLER_0_38_144
*1270 FILLER_0_38_150
*1271 FILLER_0_38_154
*1272 FILLER_0_38_158
*1273 FILLER_0_38_162
*1274 FILLER_0_38_166
*1275 FILLER_0_38_169
*1276 FILLER_0_38_174
*1277 FILLER_0_38_178
*1278 FILLER_0_38_18
*1279 FILLER_0_38_182
*1280 FILLER_0_38_186
*1281 FILLER_0_38_190
*1282 FILLER_0_38_22
*1283 FILLER_0_38_261
*1284 FILLER_0_38_279
*1285 FILLER_0_38_3
*1286 FILLER_0_38_306
*1287 FILLER_0_38_32
*1288 FILLER_0_38_323
*1289 FILLER_0_38_335
*1290 FILLER_0_38_343
*1291 FILLER_0_38_350
*1292 FILLER_0_38_38
*1293 FILLER_0_38_42
*1294 FILLER_0_38_46
*1295 FILLER_0_38_50
*1296 FILLER_0_38_54
*1297 FILLER_0_38_57
*1298 FILLER_0_38_62
*1299 FILLER_0_38_66
*1300 FILLER_0_38_70
*1301 FILLER_0_38_82
*1302 FILLER_0_38_85
*1303 FILLER_0_38_97
*1304 FILLER_0_3_105
*1305 FILLER_0_3_111
*1306 FILLER_0_3_113
*1307 FILLER_0_3_125
*1308 FILLER_0_3_137
*1309 FILLER_0_3_149
*1310 FILLER_0_3_15
*1311 FILLER_0_3_161
*1312 FILLER_0_3_167
*1313 FILLER_0_3_169
*1314 FILLER_0_3_181
*1315 FILLER_0_3_193
*1316 FILLER_0_3_205
*1317 FILLER_0_3_217
*1318 FILLER_0_3_223
*1319 FILLER_0_3_225
*1320 FILLER_0_3_237
*1321 FILLER_0_3_249
*1322 FILLER_0_3_261
*1323 FILLER_0_3_27
*1324 FILLER_0_3_273
*1325 FILLER_0_3_279
*1326 FILLER_0_3_281
*1327 FILLER_0_3_293
*1328 FILLER_0_3_3
*1329 FILLER_0_3_305
*1330 FILLER_0_3_317
*1331 FILLER_0_3_329
*1332 FILLER_0_3_335
*1333 FILLER_0_3_337
*1334 FILLER_0_3_349
*1335 FILLER_0_3_39
*1336 FILLER_0_3_51
*1337 FILLER_0_3_55
*1338 FILLER_0_3_57
*1339 FILLER_0_3_69
*1340 FILLER_0_3_81
*1341 FILLER_0_3_93
*1342 FILLER_0_4_109
*1343 FILLER_0_4_121
*1344 FILLER_0_4_133
*1345 FILLER_0_4_139
*1346 FILLER_0_4_141
*1347 FILLER_0_4_15
*1348 FILLER_0_4_153
*1349 FILLER_0_4_165
*1350 FILLER_0_4_177
*1351 FILLER_0_4_189
*1352 FILLER_0_4_195
*1353 FILLER_0_4_197
*1354 FILLER_0_4_209
*1355 FILLER_0_4_221
*1356 FILLER_0_4_233
*1357 FILLER_0_4_245
*1358 FILLER_0_4_251
*1359 FILLER_0_4_253
*1360 FILLER_0_4_265
*1361 FILLER_0_4_27
*1362 FILLER_0_4_277
*1363 FILLER_0_4_289
*1364 FILLER_0_4_29
*1365 FILLER_0_4_3
*1366 FILLER_0_4_301
*1367 FILLER_0_4_307
*1368 FILLER_0_4_309
*1369 FILLER_0_4_321
*1370 FILLER_0_4_333
*1371 FILLER_0_4_345
*1372 FILLER_0_4_41
*1373 FILLER_0_4_53
*1374 FILLER_0_4_65
*1375 FILLER_0_4_77
*1376 FILLER_0_4_83
*1377 FILLER_0_4_85
*1378 FILLER_0_4_97
*1379 FILLER_0_5_105
*1380 FILLER_0_5_111
*1381 FILLER_0_5_113
*1382 FILLER_0_5_125
*1383 FILLER_0_5_137
*1384 FILLER_0_5_149
*1385 FILLER_0_5_15
*1386 FILLER_0_5_161
*1387 FILLER_0_5_167
*1388 FILLER_0_5_169
*1389 FILLER_0_5_181
*1390 FILLER_0_5_193
*1391 FILLER_0_5_205
*1392 FILLER_0_5_217
*1393 FILLER_0_5_223
*1394 FILLER_0_5_225
*1395 FILLER_0_5_237
*1396 FILLER_0_5_249
*1397 FILLER_0_5_261
*1398 FILLER_0_5_27
*1399 FILLER_0_5_273
*1400 FILLER_0_5_279
*1401 FILLER_0_5_281
*1402 FILLER_0_5_293
*1403 FILLER_0_5_3
*1404 FILLER_0_5_305
*1405 FILLER_0_5_317
*1406 FILLER_0_5_329
*1407 FILLER_0_5_335
*1408 FILLER_0_5_337
*1409 FILLER_0_5_349
*1410 FILLER_0_5_39
*1411 FILLER_0_5_51
*1412 FILLER_0_5_55
*1413 FILLER_0_5_57
*1414 FILLER_0_5_69
*1415 FILLER_0_5_81
*1416 FILLER_0_5_93
*1417 FILLER_0_6_109
*1418 FILLER_0_6_121
*1419 FILLER_0_6_133
*1420 FILLER_0_6_139
*1421 FILLER_0_6_141
*1422 FILLER_0_6_15
*1423 FILLER_0_6_153
*1424 FILLER_0_6_165
*1425 FILLER_0_6_177
*1426 FILLER_0_6_189
*1427 FILLER_0_6_195
*1428 FILLER_0_6_197
*1429 FILLER_0_6_209
*1430 FILLER_0_6_221
*1431 FILLER_0_6_233
*1432 FILLER_0_6_245
*1433 FILLER_0_6_251
*1434 FILLER_0_6_253
*1435 FILLER_0_6_265
*1436 FILLER_0_6_27
*1437 FILLER_0_6_277
*1438 FILLER_0_6_289
*1439 FILLER_0_6_29
*1440 FILLER_0_6_3
*1441 FILLER_0_6_301
*1442 FILLER_0_6_307
*1443 FILLER_0_6_309
*1444 FILLER_0_6_321
*1445 FILLER_0_6_333
*1446 FILLER_0_6_345
*1447 FILLER_0_6_41
*1448 FILLER_0_6_53
*1449 FILLER_0_6_65
*1450 FILLER_0_6_77
*1451 FILLER_0_6_83
*1452 FILLER_0_6_85
*1453 FILLER_0_6_97
*1454 FILLER_0_7_105
*1455 FILLER_0_7_111
*1456 FILLER_0_7_113
*1457 FILLER_0_7_125
*1458 FILLER_0_7_137
*1459 FILLER_0_7_149
*1460 FILLER_0_7_15
*1461 FILLER_0_7_161
*1462 FILLER_0_7_167
*1463 FILLER_0_7_169
*1464 FILLER_0_7_181
*1465 FILLER_0_7_193
*1466 FILLER_0_7_205
*1467 FILLER_0_7_217
*1468 FILLER_0_7_223
*1469 FILLER_0_7_225
*1470 FILLER_0_7_237
*1471 FILLER_0_7_249
*1472 FILLER_0_7_261
*1473 FILLER_0_7_27
*1474 FILLER_0_7_273
*1475 FILLER_0_7_279
*1476 FILLER_0_7_281
*1477 FILLER_0_7_293
*1478 FILLER_0_7_3
*1479 FILLER_0_7_305
*1480 FILLER_0_7_317
*1481 FILLER_0_7_329
*1482 FILLER_0_7_335
*1483 FILLER_0_7_337