*SPEF "ieee 1481-1999"
*DESIGN "tt_um_currymottled"
*DATE "11:11:11 Fri 11 11, 1111"
*VENDOR "OpenRCX"
*PROGRAM "Parallel Extraction"
*VERSION "1.0"
*DESIGN_FLOW "NAME_SCOPE LOCAL" "PIN_CAP NONE"
*DIVIDER /
*DELIMITER :
*BUS_DELIMITER []
*T_UNIT 1 NS
*C_UNIT 1 PF
*R_UNIT 1 OHM
*L_UNIT 1 HENRY

*NAME_MAP
*3 clk
*4 ena
*5 rst_n
*6 ui_in[0]
*7 ui_in[1]
*8 ui_in[2]
*9 ui_in[3]
*10 ui_in[4]
*11 ui_in[5]
*12 ui_in[6]
*13 ui_in[7]
*14 uio_in[0]
*15 uio_in[1]
*16 uio_in[2]
*17 uio_in[3]
*18 uio_in[4]
*19 uio_in[5]
*20 uio_in[6]
*21 uio_in[7]
*22 net11
*23 uio_oe[1]
*24 uio_oe[2]
*25 uio_oe[3]
*26 uio_oe[4]
*27 uio_oe[5]
*28 uio_oe[6]
*29 uio_oe[7]
*30 net12
*31 uio_out[1]
*32 uio_out[2]
*33 uio_out[3]
*34 uio_out[4]
*35 uio_out[5]
*36 uio_out[6]
*37 uio_out[7]
*38 net13
*39 net14
*40 net15
*41 net16
*42 net17
*43 net18
*44 net19
*45 net20
*46 I2C_Interface\.K_d\[0\]
*47 I2C_Interface\.K_d\[1\]
*48 I2C_Interface\.K_d\[2\]
*49 I2C_Interface\.K_d\[3\]
*50 I2C_Interface\.K_d\[4\]
*51 I2C_Interface\.K_d\[5\]
*52 I2C_Interface\.K_i\[0\]
*53 I2C_Interface\.K_i\[1\]
*54 I2C_Interface\.K_i\[2\]
*55 I2C_Interface\.K_i\[3\]
*56 I2C_Interface\.K_i\[4\]
*57 I2C_Interface\.K_i\[5\]
*58 I2C_Interface\.K_p\[0\]
*59 I2C_Interface\.K_p\[1\]
*60 I2C_Interface\.K_p\[2\]
*61 I2C_Interface\.K_p\[3\]
*62 I2C_Interface\.K_p\[4\]
*63 I2C_Interface\.K_p\[5\]
*64 I2C_Interface\.Registers\.read_value\[0\]
*65 I2C_Interface\.Registers\.read_value\[1\]
*66 I2C_Interface\.Registers\.read_value\[2\]
*67 I2C_Interface\.Registers\.read_value\[3\]
*68 I2C_Interface\.Registers\.read_value\[4\]
*69 I2C_Interface\.Registers\.read_value\[5\]
*70 I2C_Interface\.Registers\.reg_addr\[0\]
*71 I2C_Interface\.Registers\.reg_addr\[1\]
*72 I2C_Interface\.Registers\.reg_addr\[2\]
*73 I2C_Interface\.Registers\.reg_addr\[3\]
*74 I2C_Interface\.Registers\.reg_addr\[4\]
*75 I2C_Interface\.Registers\.reg_addr\[5\]
*76 I2C_Interface\.Registers\.reg_addr\[6\]
*77 I2C_Interface\.Registers\.reg_addr\[7\]
*78 I2C_Interface\.Registers\.update_value\[0\]
*79 I2C_Interface\.Registers\.update_value\[1\]
*80 I2C_Interface\.Registers\.update_value\[2\]
*81 I2C_Interface\.Registers\.update_value\[3\]
*82 I2C_Interface\.Registers\.update_value\[4\]
*83 I2C_Interface\.Registers\.update_value\[5\]
*84 I2C_Interface\.SDA_ena
*85 I2C_Interface\.SDA_out
*86 I2C_Interface\.Signals\.data_index\[0\]
*87 I2C_Interface\.Signals\.data_index\[1\]
*88 I2C_Interface\.Signals\.data_index\[2\]
*89 I2C_Interface\.Signals\.state\[0\]
*90 I2C_Interface\.Signals\.state\[1\]
*91 I2C_Interface\.Signals\.state\[2\]
*92 I2C_Interface\.Signals\.state\[3\]
*93 I2C_Interface\.Signals\.state\[4\]
*94 I2C_Interface\.Slave_settings\.addr_index\[0\]
*95 I2C_Interface\.Slave_settings\.addr_index\[1\]
*96 I2C_Interface\.Slave_settings\.addr_index\[2\]
*97 I2C_Interface\.Slave_settings\.device_addr\[0\]
*98 I2C_Interface\.Slave_settings\.device_addr\[1\]
*99 I2C_Interface\.Slave_settings\.device_addr\[2\]
*100 I2C_Interface\.Slave_settings\.device_addr\[3\]
*101 I2C_Interface\.Slave_settings\.device_addr\[4\]
*102 I2C_Interface\.Slave_settings\.device_addr\[5\]
*103 I2C_Interface\.Slave_settings\.device_addr\[6\]
*104 I2C_Interface\.Slave_settings\.reg_index\[0\]
*105 I2C_Interface\.Slave_settings\.reg_index\[1\]
*106 I2C_Interface\.Slave_settings\.reg_index\[2\]
*107 PID\.D_ins\.K_d_repadder\.a\[0\]
*108 PID\.D_ins\.K_d_repadder\.a\[1\]
*109 PID\.D_ins\.K_d_repadder\.a\[2\]
*110 PID\.D_ins\.K_d_repadder\.a\[3\]
*111 PID\.D_ins\.K_d_repadder\.a\[4\]
*112 PID\.D_ins\.K_d_repadder\.a\[5\]
*113 PID\.D_ins\.K_d_repadder\.a_reg\[0\]
*114 PID\.D_ins\.K_d_repadder\.a_reg\[10\]
*115 PID\.D_ins\.K_d_repadder\.a_reg\[1\]
*116 PID\.D_ins\.K_d_repadder\.a_reg\[2\]
*117 PID\.D_ins\.K_d_repadder\.a_reg\[3\]
*118 PID\.D_ins\.K_d_repadder\.a_reg\[4\]
*119 PID\.D_ins\.K_d_repadder\.a_times_b\[0\]
*120 PID\.D_ins\.K_d_repadder\.a_times_b\[1\]
*121 PID\.D_ins\.K_d_repadder\.a_times_b\[2\]
*122 PID\.D_ins\.K_d_repadder\.a_times_b\[3\]
*123 PID\.D_ins\.K_d_repadder\.a_times_b\[4\]
*124 PID\.D_ins\.K_d_repadder\.a_times_b\[5\]
*125 PID\.D_ins\.K_d_repadder\.index\[0\]
*126 PID\.D_ins\.K_d_repadder\.index\[1\]
*127 PID\.D_ins\.K_d_repadder\.index\[2\]
*128 PID\.D_ins\.K_d_repadder\.index\[3\]
*129 PID\.D_ins\.K_d_repadder\.index\[4\]
*130 PID\.D_ins\.K_d_repadder\.index\[5\]
*131 PID\.D_ins\.K_d_repadder\.temp_result\[0\]
*132 PID\.D_ins\.K_d_repadder\.temp_result\[10\]
*133 PID\.D_ins\.K_d_repadder\.temp_result\[11\]
*134 PID\.D_ins\.K_d_repadder\.temp_result\[12\]
*135 PID\.D_ins\.K_d_repadder\.temp_result\[13\]
*136 PID\.D_ins\.K_d_repadder\.temp_result\[14\]
*137 PID\.D_ins\.K_d_repadder\.temp_result\[15\]
*138 PID\.D_ins\.K_d_repadder\.temp_result\[1\]
*139 PID\.D_ins\.K_d_repadder\.temp_result\[2\]
*140 PID\.D_ins\.K_d_repadder\.temp_result\[3\]
*141 PID\.D_ins\.K_d_repadder\.temp_result\[4\]
*142 PID\.D_ins\.K_d_repadder\.temp_result\[5\]
*143 PID\.D_ins\.K_d_repadder\.temp_result\[6\]
*144 PID\.D_ins\.K_d_repadder\.temp_result\[7\]
*145 PID\.D_ins\.K_d_repadder\.temp_result\[8\]
*146 PID\.D_ins\.K_d_repadder\.temp_result\[9\]
*147 PID\.D_ins\.e\[0\]
*148 PID\.D_ins\.e\[1\]
*149 PID\.D_ins\.e\[2\]
*150 PID\.D_ins\.e\[3\]
*151 PID\.D_ins\.e\[4\]
*152 PID\.D_ins\.e\[5\]
*153 PID\.D_ins\.e_prior\[0\]
*154 PID\.D_ins\.e_prior\[1\]
*155 PID\.D_ins\.e_prior\[2\]
*156 PID\.D_ins\.e_prior\[3\]
*157 PID\.D_ins\.e_prior\[4\]
*158 PID\.D_ins\.e_prior\[5\]
*159 PID\.I_ins\.K_d_repadder\.a\[0\]
*160 PID\.I_ins\.K_d_repadder\.a\[1\]
*161 PID\.I_ins\.K_d_repadder\.a\[2\]
*162 PID\.I_ins\.K_d_repadder\.a\[3\]
*163 PID\.I_ins\.K_d_repadder\.a\[4\]
*164 PID\.I_ins\.K_d_repadder\.a\[5\]
*165 PID\.I_ins\.K_d_repadder\.a_reg\[0\]
*166 PID\.I_ins\.K_d_repadder\.a_reg\[10\]
*167 PID\.I_ins\.K_d_repadder\.a_reg\[1\]
*168 PID\.I_ins\.K_d_repadder\.a_reg\[2\]
*169 PID\.I_ins\.K_d_repadder\.a_reg\[3\]
*170 PID\.I_ins\.K_d_repadder\.a_reg\[4\]
*171 PID\.I_ins\.K_d_repadder\.a_times_b\[0\]
*172 PID\.I_ins\.K_d_repadder\.a_times_b\[1\]
*173 PID\.I_ins\.K_d_repadder\.a_times_b\[2\]
*174 PID\.I_ins\.K_d_repadder\.a_times_b\[3\]
*175 PID\.I_ins\.K_d_repadder\.a_times_b\[4\]
*176 PID\.I_ins\.K_d_repadder\.a_times_b\[5\]
*177 PID\.I_ins\.K_d_repadder\.index\[0\]
*178 PID\.I_ins\.K_d_repadder\.index\[1\]
*179 PID\.I_ins\.K_d_repadder\.index\[2\]
*180 PID\.I_ins\.K_d_repadder\.index\[3\]
*181 PID\.I_ins\.K_d_repadder\.index\[4\]
*182 PID\.I_ins\.K_d_repadder\.index\[5\]
*183 PID\.I_ins\.K_d_repadder\.temp_result\[0\]
*184 PID\.I_ins\.K_d_repadder\.temp_result\[10\]
*185 PID\.I_ins\.K_d_repadder\.temp_result\[11\]
*186 PID\.I_ins\.K_d_repadder\.temp_result\[12\]
*187 PID\.I_ins\.K_d_repadder\.temp_result\[13\]
*188 PID\.I_ins\.K_d_repadder\.temp_result\[14\]
*189 PID\.I_ins\.K_d_repadder\.temp_result\[15\]
*190 PID\.I_ins\.K_d_repadder\.temp_result\[1\]
*191 PID\.I_ins\.K_d_repadder\.temp_result\[2\]
*192 PID\.I_ins\.K_d_repadder\.temp_result\[3\]
*193 PID\.I_ins\.K_d_repadder\.temp_result\[4\]
*194 PID\.I_ins\.K_d_repadder\.temp_result\[5\]
*195 PID\.I_ins\.K_d_repadder\.temp_result\[6\]
*196 PID\.I_ins\.K_d_repadder\.temp_result\[7\]
*197 PID\.I_ins\.K_d_repadder\.temp_result\[8\]
*198 PID\.I_ins\.K_d_repadder\.temp_result\[9\]
*199 PID\.P_ins\.K_p_repadder\.a_reg\[0\]
*200 PID\.P_ins\.K_p_repadder\.a_reg\[10\]
*201 PID\.P_ins\.K_p_repadder\.a_reg\[1\]
*202 PID\.P_ins\.K_p_repadder\.a_reg\[2\]
*203 PID\.P_ins\.K_p_repadder\.a_reg\[3\]
*204 PID\.P_ins\.K_p_repadder\.a_reg\[4\]
*205 PID\.P_ins\.K_p_repadder\.a_times_b\[0\]
*206 PID\.P_ins\.K_p_repadder\.a_times_b\[1\]
*207 PID\.P_ins\.K_p_repadder\.a_times_b\[2\]
*208 PID\.P_ins\.K_p_repadder\.a_times_b\[3\]
*209 PID\.P_ins\.K_p_repadder\.a_times_b\[4\]
*210 PID\.P_ins\.K_p_repadder\.a_times_b\[5\]
*211 PID\.P_ins\.K_p_repadder\.index\[0\]
*212 PID\.P_ins\.K_p_repadder\.index\[1\]
*213 PID\.P_ins\.K_p_repadder\.index\[2\]
*214 PID\.P_ins\.K_p_repadder\.index\[3\]
*215 PID\.P_ins\.K_p_repadder\.index\[4\]
*216 PID\.P_ins\.K_p_repadder\.index\[5\]
*217 PID\.P_ins\.K_p_repadder\.temp_result\[0\]
*218 PID\.P_ins\.K_p_repadder\.temp_result\[10\]
*219 PID\.P_ins\.K_p_repadder\.temp_result\[11\]
*220 PID\.P_ins\.K_p_repadder\.temp_result\[12\]
*221 PID\.P_ins\.K_p_repadder\.temp_result\[13\]
*222 PID\.P_ins\.K_p_repadder\.temp_result\[14\]
*223 PID\.P_ins\.K_p_repadder\.temp_result\[15\]
*224 PID\.P_ins\.K_p_repadder\.temp_result\[1\]
*225 PID\.P_ins\.K_p_repadder\.temp_result\[2\]
*226 PID\.P_ins\.K_p_repadder\.temp_result\[3\]
*227 PID\.P_ins\.K_p_repadder\.temp_result\[4\]
*228 PID\.P_ins\.K_p_repadder\.temp_result\[5\]
*229 PID\.P_ins\.K_p_repadder\.temp_result\[6\]
*230 PID\.P_ins\.K_p_repadder\.temp_result\[7\]
*231 PID\.P_ins\.K_p_repadder\.temp_result\[8\]
*232 PID\.P_ins\.K_p_repadder\.temp_result\[9\]
*233 PID\.u\[0\]
*234 PID\.u\[1\]
*235 PID\.u\[2\]
*236 PID\.u\[3\]
*237 PID\.u\[4\]
*238 PID\.u\[5\]
*239 _0000_
*240 _0001_
*241 _0002_
*242 _0003_
*243 _0004_
*244 _0005_
*245 _0006_
*246 _0007_
*247 _0008_
*248 _0009_
*249 _0010_
*250 _0011_
*251 _0012_
*252 _0013_
*253 _0014_
*254 _0015_
*255 _0016_
*256 _0017_
*257 _0018_
*258 _0019_
*259 _0020_
*260 _0021_
*261 _0022_
*262 _0023_
*263 _0024_
*264 _0025_
*265 _0026_
*266 _0027_
*267 _0028_
*268 _0029_
*269 _0030_
*270 _0031_
*271 _0032_
*272 _0033_
*273 _0034_
*274 _0035_
*275 _0036_
*276 _0037_
*277 _0038_
*278 _0039_
*279 _0040_
*280 _0041_
*281 _0042_
*282 _0043_
*283 _0044_
*284 _0045_
*285 _0046_
*286 _0047_
*287 _0048_
*288 _0049_
*289 _0050_
*290 _0051_
*291 _0052_
*292 _0053_
*293 _0054_
*294 _0055_
*295 _0056_
*296 _0057_
*297 _0058_
*298 _0059_
*299 _0060_
*300 _0061_
*301 _0062_
*302 _0063_
*303 _0064_
*304 _0065_
*305 _0066_
*306 _0067_
*307 _0068_
*308 _0069_
*309 _0070_
*310 _0071_
*311 _0072_
*312 _0073_
*313 _0074_
*314 _0075_
*315 _0076_
*316 _0077_
*317 _0078_
*318 _0079_
*319 _0080_
*320 _0081_
*321 _0082_
*322 _0083_
*323 _0084_
*324 _0085_
*325 _0086_
*326 _0087_
*327 _0088_
*328 _0089_
*329 _0090_
*330 _0091_
*331 _0092_
*332 _0093_
*333 _0094_
*334 _0095_
*335 _0096_
*336 _0097_
*337 _0098_
*338 _0099_
*339 _0100_
*340 _0101_
*341 _0102_
*342 _0103_
*343 _0104_
*344 _0105_
*345 _0106_
*346 _0107_
*347 _0108_
*348 _0109_
*349 _0110_
*350 _0111_
*351 _0112_
*352 _0113_
*353 _0114_
*354 _0115_
*355 _0116_
*356 _0117_
*357 _0118_
*358 _0119_
*359 _0120_
*360 _0121_
*361 _0122_
*362 _0123_
*363 _0124_
*364 _0125_
*365 _0126_
*366 _0127_
*367 _0128_
*368 _0129_
*369 _0130_
*370 _0131_
*371 _0132_
*372 _0133_
*373 _0134_
*374 _0135_
*375 _0136_
*376 _0137_
*377 _0138_
*378 _0139_
*379 _0140_
*380 _0141_
*381 _0142_
*382 _0143_
*383 _0144_
*384 _0145_
*385 _0146_
*386 _0147_
*387 _0148_
*388 _0149_
*389 _0150_
*390 _0151_
*391 _0152_
*392 _0153_
*393 _0154_
*394 _0155_
*395 _0156_
*396 _0157_
*397 _0158_
*398 _0159_
*399 _0160_
*400 _0161_
*401 _0162_
*402 _0163_
*403 _0164_
*404 _0165_
*405 _0166_
*406 _0167_
*407 _0168_
*408 _0169_
*409 _0170_
*410 _0171_
*411 _0172_
*412 _0173_
*413 _0174_
*414 _0175_
*415 _0176_
*416 _0177_
*417 _0178_
*418 _0179_
*419 _0180_
*420 _0181_
*421 _0182_
*422 _0183_
*423 _0184_
*424 _0185_
*425 _0186_
*426 _0187_
*427 _0188_
*428 _0189_
*429 _0190_
*430 _0191_
*431 _0192_
*432 _0193_
*433 _0194_
*434 _0195_
*435 _0196_
*436 _0197_
*437 _0198_
*438 _0199_
*439 _0200_
*440 _0201_
*441 _0202_
*442 _0203_
*443 _0204_
*444 _0205_
*445 _0206_
*446 _0207_
*447 _0208_
*448 _0209_
*449 _0210_
*450 _0211_
*451 _0212_
*452 _0213_
*453 _0214_
*454 _0215_
*455 _0216_
*456 _0217_
*457 _0218_
*458 _0219_
*459 _0220_
*460 _0221_
*461 _0222_
*462 _0223_
*463 _0224_
*464 _0225_
*465 _0226_
*466 _0227_
*467 _0228_
*468 _0229_
*469 _0230_
*470 _0231_
*471 _0232_
*472 _0233_
*473 _0234_
*474 _0235_
*475 _0236_
*476 _0237_
*477 _0238_
*478 _0239_
*479 _0240_
*480 _0241_
*481 _0242_
*482 _0243_
*483 _0244_
*484 _0245_
*485 _0246_
*486 _0247_
*487 _0248_
*488 _0249_
*489 _0250_
*490 _0251_
*491 _0252_
*492 _0253_
*493 _0254_
*494 _0255_
*495 _0256_
*496 _0257_
*497 _0258_
*498 _0259_
*499 _0260_
*500 _0261_
*501 _0262_
*502 _0263_
*503 _0264_
*504 _0265_
*505 _0266_
*506 _0267_
*507 _0268_
*508 _0269_
*509 _0270_
*510 _0271_
*511 _0272_
*512 _0273_
*513 _0274_
*514 _0275_
*515 _0276_
*516 _0277_
*517 _0278_
*518 _0279_
*519 _0280_
*520 _0281_
*521 _0282_
*522 _0283_
*523 _0284_
*524 _0285_
*525 _0286_
*526 _0287_
*527 _0288_
*528 _0289_
*529 _0290_
*530 _0291_
*531 _0292_
*532 _0293_
*533 _0294_
*534 _0295_
*535 _0296_
*536 _0297_
*537 _0298_
*538 _0299_
*539 _0300_
*540 _0301_
*541 _0302_
*542 _0303_
*543 _0304_
*544 _0305_
*545 _0306_
*546 _0307_
*547 _0308_
*548 _0309_
*549 _0310_
*550 _0311_
*551 _0312_
*552 _0313_
*553 _0314_
*554 _0315_
*555 _0316_
*556 _0317_
*557 _0318_
*558 _0319_
*559 _0320_
*560 _0321_
*561 _0322_
*562 _0323_
*563 _0324_
*564 _0325_
*565 _0326_
*566 _0327_
*567 _0328_
*568 _0329_
*569 _0330_
*570 _0331_
*571 _0332_
*572 _0333_
*573 _0334_
*574 _0335_
*575 _0336_
*576 _0337_
*577 _0338_
*578 _0339_
*579 _0340_
*580 _0341_
*581 _0342_
*582 _0343_
*583 _0344_
*584 _0345_
*585 _0346_
*586 _0347_
*587 _0348_
*588 _0349_
*589 _0350_
*590 _0351_
*591 _0352_
*592 _0353_
*593 _0354_
*594 _0355_
*595 _0356_
*596 _0357_
*597 _0358_
*598 _0359_
*599 _0360_
*600 _0361_
*601 _0362_
*602 _0363_
*603 _0364_
*604 _0365_
*605 _0366_
*606 _0367_
*607 _0368_
*608 _0369_
*609 _0370_
*610 _0371_
*611 _0372_
*612 _0373_
*613 _0374_
*614 _0375_
*615 _0376_
*616 _0377_
*617 _0378_
*618 _0379_
*619 _0380_
*620 _0381_
*621 _0382_
*622 _0383_
*623 _0384_
*624 _0385_
*625 _0386_
*626 _0387_
*627 _0388_
*628 _0389_
*629 _0390_
*630 _0391_
*631 _0392_
*632 _0393_
*633 _0394_
*634 _0395_
*635 _0396_
*636 _0397_
*637 _0398_
*638 _0399_
*639 _0400_
*640 _0401_
*641 _0402_
*642 _0403_
*643 _0404_
*644 _0405_
*645 _0406_
*646 _0407_
*647 _0408_
*648 _0409_
*649 _0410_
*650 _0411_
*651 _0412_
*652 _0413_
*653 _0414_
*654 _0415_
*655 _0416_
*656 _0417_
*657 _0418_
*658 _0419_
*659 _0420_
*660 _0421_
*661 _0422_
*662 _0423_
*663 _0424_
*664 _0425_
*665 _0426_
*666 _0427_
*667 _0428_
*668 _0429_
*669 _0430_
*670 _0431_
*671 _0432_
*672 _0433_
*673 _0434_
*674 _0435_
*675 _0436_
*676 _0437_
*677 _0438_
*678 _0439_
*679 _0440_
*680 _0441_
*681 _0442_
*682 _0443_
*683 _0444_
*684 _0445_
*685 _0446_
*686 _0447_
*687 _0448_
*688 _0449_
*689 _0450_
*690 _0451_
*691 _0452_
*692 _0453_
*693 _0454_
*694 _0455_
*695 _0456_
*696 _0457_
*697 _0458_
*698 _0459_
*699 _0460_
*700 _0461_
*701 _0462_
*702 _0463_
*703 _0464_
*704 _0465_
*705 _0466_
*706 _0467_
*707 _0468_
*708 _0469_
*709 _0470_
*710 _0471_
*711 _0472_
*712 _0473_
*713 _0474_
*714 _0475_
*715 _0476_
*716 _0477_
*717 _0478_
*718 _0479_
*719 _0480_
*720 _0481_
*721 _0482_
*722 _0483_
*723 _0484_
*724 _0485_
*725 _0486_
*726 _0487_
*727 _0488_
*728 _0489_
*729 _0490_
*730 _0491_
*731 _0492_
*732 _0493_
*733 _0494_
*734 _0495_
*735 _0496_
*736 _0497_
*737 _0498_
*738 _0499_
*739 _0500_
*740 _0501_
*741 _0502_
*742 _0503_
*743 _0504_
*744 _0505_
*745 _0506_
*746 _0507_
*747 _0508_
*748 _0509_
*749 _0510_
*750 _0511_
*751 _0512_
*752 _0513_
*753 _0514_
*754 _0515_
*755 _0516_
*756 _0517_
*757 _0518_
*758 _0519_
*759 _0520_
*760 _0521_
*761 _0522_
*762 _0523_
*763 _0524_
*764 _0525_
*765 _0526_
*766 _0527_
*767 _0528_
*768 _0529_
*769 _0530_
*770 _0531_
*771 _0532_
*772 _0533_
*773 _0534_
*774 _0535_
*775 _0536_
*776 _0537_
*777 _0538_
*778 _0539_
*779 _0540_
*780 _0541_
*781 _0542_
*782 _0543_
*783 _0544_
*784 _0545_
*785 _0546_
*786 _0547_
*787 _0548_
*788 _0549_
*789 _0550_
*790 _0551_
*791 _0552_
*792 _0553_
*793 _0554_
*794 _0555_
*795 _0556_
*796 _0557_
*797 _0558_
*798 _0559_
*799 _0560_
*800 _0561_
*801 _0562_
*802 _0563_
*803 _0564_
*804 _0565_
*805 _0566_
*806 _0567_
*807 _0568_
*808 _0569_
*809 _0570_
*810 _0571_
*811 _0572_
*812 _0573_
*813 _0574_
*814 _0575_
*815 _0576_
*816 _0577_
*817 _0578_
*818 _0579_
*819 _0580_
*820 _0581_
*821 _0582_
*822 _0583_
*823 _0584_
*824 _0585_
*825 _0586_
*826 _0587_
*827 _0588_
*828 _0589_
*829 _0590_
*830 _0591_
*831 _0592_
*832 _0593_
*833 _0594_
*834 _0595_
*835 _0596_
*836 _0597_
*837 _0598_
*838 _0599_
*839 _0600_
*840 _0601_
*841 _0602_
*842 _0603_
*843 _0604_
*844 _0605_
*845 _0606_
*846 _0607_
*847 _0608_
*848 _0609_
*849 _0610_
*850 _0611_
*851 _0612_
*852 _0613_
*853 _0614_
*854 _0615_
*855 _0616_
*856 _0617_
*857 _0618_
*858 _0619_
*859 _0620_
*860 _0621_
*861 _0622_
*862 _0623_
*863 _0624_
*864 _0625_
*865 _0626_
*866 _0627_
*867 _0628_
*868 _0629_
*869 _0630_
*870 _0631_
*871 _0632_
*872 _0633_
*873 _0634_
*874 _0635_
*875 _0636_
*876 _0637_
*877 _0638_
*878 _0639_
*879 _0640_
*880 _0641_
*881 _0642_
*882 _0643_
*883 _0644_
*884 _0645_
*885 _0646_
*886 _0647_
*887 _0648_
*888 _0649_
*889 _0650_
*890 _0651_
*891 _0652_
*892 _0653_
*893 _0654_
*894 _0655_
*895 _0656_
*896 _0657_
*897 _0658_
*898 _0659_
*899 _0660_
*900 _0661_
*901 _0662_
*902 _0663_
*903 _0664_
*904 _0665_
*905 _0666_
*906 _0667_
*907 _0668_
*908 _0669_
*909 _0670_
*910 _0671_
*911 _0672_
*912 _0673_
*913 _0674_
*914 _0675_
*915 _0676_
*916 _0677_
*917 _0678_
*918 _0679_
*919 _0680_
*920 _0681_
*921 _0682_
*922 _0683_
*923 _0684_
*924 _0685_
*925 _0686_
*926 _0687_
*927 _0688_
*928 _0689_
*929 _0690_
*930 _0691_
*931 _0692_
*932 _0693_
*933 _0694_
*934 _0695_
*935 _0696_
*936 _0697_
*937 _0698_
*938 _0699_
*939 _0700_
*940 _0701_
*941 _0702_
*942 _0703_
*943 _0704_
*944 _0705_
*945 _0706_
*946 _0707_
*947 _0708_
*948 _0709_
*949 _0710_
*950 _0711_
*951 _0712_
*952 _0713_
*953 _0714_
*954 _0715_
*955 _0716_
*956 _0717_
*957 _0718_
*958 _0719_
*959 _0720_
*960 _0721_
*961 _0722_
*962 _0723_
*963 _0724_
*964 _0725_
*965 _0726_
*966 _0727_
*967 _0728_
*968 _0729_
*969 _0730_
*970 _0731_
*971 _0732_
*972 _0733_
*973 _0734_
*974 _0735_
*975 _0736_
*976 _0737_
*977 _0738_
*978 _0739_
*979 _0740_
*980 _0741_
*981 _0742_
*982 _0743_
*983 _0744_
*984 _0745_
*985 _0746_
*986 _0747_
*987 _0748_
*988 _0749_
*989 _0750_
*990 _0751_
*991 _0752_
*992 _0753_
*993 _0754_
*994 _0755_
*995 _0756_
*996 _0757_
*997 _0758_
*998 _0759_
*999 _0760_
*1000 _0761_
*1001 _0762_
*1002 _0763_
*1003 _0764_
*1004 _0765_
*1005 _0766_
*1006 _0767_
*1007 _0768_
*1008 _0769_
*1009 _0770_
*1010 _0771_
*1011 _0772_
*1012 _0773_
*1013 _0774_
*1014 _0775_
*1015 _0776_
*1016 _0777_
*1017 _0778_
*1018 _0779_
*1019 _0780_
*1020 _0781_
*1021 _0782_
*1022 _0783_
*1023 _0784_
*1024 _0785_
*1025 _0786_
*1026 _0787_
*1027 _0788_
*1028 _0789_
*1029 _0790_
*1030 _0791_
*1031 _0792_
*1032 _0793_
*1033 _0794_
*1034 _0795_
*1035 _0796_
*1036 _0797_
*1037 _0798_
*1038 _0799_
*1039 _0800_
*1040 _0801_
*1041 _0802_
*1042 _0803_
*1043 _0804_
*1044 _0805_
*1045 _0806_
*1046 _0807_
*1047 _0808_
*1048 _0809_
*1049 _0810_
*1050 _0811_
*1051 _0812_
*1052 _0813_
*1053 _0814_
*1054 _0815_
*1055 _0816_
*1056 _0817_
*1057 _0818_
*1058 _0819_
*1059 _0820_
*1060 _0821_
*1061 _0822_
*1062 _0823_
*1063 _0824_
*1064 _0825_
*1065 _0826_
*1066 _0827_
*1067 _0828_
*1068 _0829_
*1069 _0830_
*1070 _0831_
*1071 _0832_
*1072 _0833_
*1073 _0834_
*1074 _0835_
*1075 _0836_
*1076 _0837_
*1077 _0838_
*1078 _0839_
*1079 _0840_
*1080 _0841_
*1081 _0842_
*1082 _0843_
*1083 _0844_
*1084 _0845_
*1085 _0846_
*1086 _0847_
*1087 _0848_
*1088 _0849_
*1089 _0850_
*1090 _0851_
*1091 _0852_
*1092 _0853_
*1093 _0854_
*1094 _0855_
*1095 _0856_
*1096 _0857_
*1097 _0858_
*1098 _0859_
*1099 _0860_
*1100 _0861_
*1101 _0862_
*1102 _0863_
*1103 _0864_
*1104 _0865_
*1105 _0866_
*1106 _0867_
*1107 _0868_
*1108 _0869_
*1109 _0870_
*1110 _0871_
*1111 _0872_
*1112 _0873_
*1113 _0874_
*1114 _0875_
*1115 _0876_
*1116 _0877_
*1117 _0878_
*1118 _0879_
*1119 _0880_
*1120 _0881_
*1121 _0882_
*1122 _0883_
*1123 _0884_
*1124 _0885_
*1125 _0886_
*1126 _0887_
*1127 _0888_
*1128 _0889_
*1129 _0890_
*1130 _0891_
*1131 _0892_
*1132 _0893_
*1133 _0894_
*1134 _0895_
*1135 _0896_
*1136 _0897_
*1137 _0898_
*1138 _0899_
*1139 _0900_
*1140 _0901_
*1141 _0902_
*1142 _0903_
*1143 _0904_
*1144 _0905_
*1145 _0906_
*1146 _0907_
*1147 _0908_
*1148 _0909_
*1149 _0910_
*1150 _0911_
*1151 _0912_
*1152 _0913_
*1153 _0914_
*1154 _0915_
*1155 _0916_
*1156 _0917_
*1157 _0918_
*1158 _0919_
*1159 _0920_
*1160 _0921_
*1161 _0922_
*1162 _0923_
*1163 _0924_
*1164 _0925_
*1165 _0926_
*1166 _0927_
*1167 _0928_
*1168 _0929_
*1169 _0930_
*1170 _0931_
*1171 _0932_
*1172 _0933_
*1173 _0934_
*1174 _0935_
*1175 _0936_
*1176 _0937_
*1177 _0938_
*1178 _0939_
*1179 _0940_
*1180 _0941_
*1181 _0942_
*1182 _0943_
*1183 _0944_
*1184 _0945_
*1185 _0946_
*1186 clknet_0__0444_
*1187 clknet_0_clk
*1188 clknet_1_0__leaf__0444_
*1189 clknet_1_1__leaf__0444_
*1190 clknet_4_0_0_clk
*1191 clknet_4_10_0_clk
*1192 clknet_4_11_0_clk
*1193 clknet_4_12_0_clk
*1194 clknet_4_13_0_clk
*1195 clknet_4_14_0_clk
*1196 clknet_4_15_0_clk
*1197 clknet_4_1_0_clk
*1198 clknet_4_2_0_clk
*1199 clknet_4_3_0_clk
*1200 clknet_4_4_0_clk
*1201 clknet_4_5_0_clk
*1202 clknet_4_6_0_clk
*1203 clknet_4_7_0_clk
*1204 clknet_4_8_0_clk
*1205 clknet_4_9_0_clk
*1206 net1
*1207 net10
*1208 net100
*1209 net101
*1210 net102
*1211 net103
*1212 net104
*1213 net105
*1214 net106
*1215 net107
*1216 net108
*1217 net109
*1218 net110
*1219 net111
*1220 net112
*1221 net113
*1222 net114
*1223 net115
*1224 net116
*1225 net117
*1226 net118
*1227 net119
*1228 net120
*1229 net121
*1230 net122
*1231 net123
*1232 net124
*1233 net125
*1234 net126
*1235 net127
*1236 net128
*1237 net129
*1238 net130
*1239 net131
*1240 net132
*1241 net133
*1242 net134
*1243 net135
*1244 net136
*1245 net137
*1246 net138
*1247 net139
*1248 net140
*1249 net141
*1250 net142
*1251 net143
*1252 net144
*1253 net145
*1254 net146
*1255 net147
*1256 net148
*1257 net149
*1258 net150
*1259 net151
*1260 net152
*1261 net153
*1262 net154
*1263 net2
*1264 net21
*1265 net22
*1266 net23
*1267 net24
*1268 net25
*1269 net26
*1270 net27
*1271 net28
*1272 net29
*1273 net3
*1274 net30
*1275 net31
*1276 net32
*1277 net33
*1278 net34
*1279 net35
*1280 net36
*1281 net37
*1282 net38
*1283 net39
*1284 net4
*1285 net40
*1286 net41
*1287 net42
*1288 net43
*1289 net44
*1290 net45
*1291 net46
*1292 net47
*1293 net48
*1294 net49
*1295 net5
*1296 net50
*1297 net51
*1298 net52
*1299 net53
*1300 net54
*1301 net55
*1302 net56
*1303 net57
*1304 net58
*1305 net59
*1306 net6
*1307 net60
*1308 net61
*1309 net62
*1310 net63
*1311 net64
*1312 net65
*1313 net66
*1314 net67
*1315 net68
*1316 net69
*1317 net7
*1318 net70
*1319 net71
*1320 net72
*1321 net73
*1322 net74
*1323 net75
*1324 net76
*1325 net77
*1326 net78
*1327 net79
*1328 net8
*1329 net80
*1330 net81
*1331 net82
*1332 net83
*1333 net84
*1334 net85
*1335 net86
*1336 net87
*1337 net88
*1338 net89
*1339 net9
*1340 net90
*1341 net91
*1342 net92
*1343 net93
*1344 net94
*1345 net95
*1346 net96
*1347 net97
*1348 net98
*1349 net99
*1350 FILLER_0_0_103
*1351 FILLER_0_0_111
*1352 FILLER_0_0_129
*1353 FILLER_0_0_138
*1354 FILLER_0_0_141
*1355 FILLER_0_0_149
*1356 FILLER_0_0_15
*1357 FILLER_0_0_169
*1358 FILLER_0_0_193
*1359 FILLER_0_0_197
*1360 FILLER_0_0_204
*1361 FILLER_0_0_216
*1362 FILLER_0_0_244
*1363 FILLER_0_0_269
*1364 FILLER_0_0_27
*1365 FILLER_0_0_277
*1366 FILLER_0_0_29
*1367 FILLER_0_0_3
*1368 FILLER_0_0_309
*1369 FILLER_0_0_317
*1370 FILLER_0_0_334
*1371 FILLER_0_0_337
*1372 FILLER_0_0_349
*1373 FILLER_0_0_73
*1374 FILLER_0_0_93
*1375 FILLER_0_10_144
*1376 FILLER_0_10_166
*1377 FILLER_0_10_179
*1378 FILLER_0_10_189
*1379 FILLER_0_10_195
*1380 FILLER_0_10_212
*1381 FILLER_0_10_218
*1382 FILLER_0_10_240
*1383 FILLER_0_10_269
*1384 FILLER_0_10_27
*1385 FILLER_0_10_281
*1386 FILLER_0_10_293
*1387 FILLER_0_10_306
*1388 FILLER_0_10_331
*1389 FILLER_0_10_46
*1390 FILLER_0_10_64
*1391 FILLER_0_10_78
*1392 FILLER_0_10_85
*1393 FILLER_0_10_91
*1394 FILLER_0_11_10
*1395 FILLER_0_11_110
*1396 FILLER_0_11_113
*1397 FILLER_0_11_119
*1398 FILLER_0_11_140
*1399 FILLER_0_11_160
*1400 FILLER_0_11_185
*1401 FILLER_0_11_205
*1402 FILLER_0_11_225
*1403 FILLER_0_11_240
*1404 FILLER_0_11_258
*1405 FILLER_0_11_263
*1406 FILLER_0_11_269
*1407 FILLER_0_11_27
*1408 FILLER_0_11_273
*1409 FILLER_0_11_279
*1410 FILLER_0_11_286
*1411 FILLER_0_11_3
*1412 FILLER_0_11_306
*1413 FILLER_0_11_324
*1414 FILLER_0_11_331
*1415 FILLER_0_11_349
*1416 FILLER_0_11_68
*1417 FILLER_0_12_117
*1418 FILLER_0_12_123
*1419 FILLER_0_12_141
*1420 FILLER_0_12_160
*1421 FILLER_0_12_179
*1422 FILLER_0_12_183
*1423 FILLER_0_12_19
*1424 FILLER_0_12_192
*1425 FILLER_0_12_197
*1426 FILLER_0_12_221
*1427 FILLER_0_12_229
*1428 FILLER_0_12_250
*1429 FILLER_0_12_256
*1430 FILLER_0_12_27
*1431 FILLER_0_12_274
*1432 FILLER_0_12_280
*1433 FILLER_0_12_303
*1434 FILLER_0_12_309
*1435 FILLER_0_12_327
*1436 FILLER_0_12_333
*1437 FILLER_0_12_38
*1438 FILLER_0_12_66
*1439 FILLER_0_12_81
*1440 FILLER_0_12_90
*1441 FILLER_0_12_98
*1442 FILLER_0_13_101
*1443 FILLER_0_13_116
*1444 FILLER_0_13_15
*1445 FILLER_0_13_158
*1446 FILLER_0_13_169
*1447 FILLER_0_13_223
*1448 FILLER_0_13_251
*1449 FILLER_0_13_27
*1450 FILLER_0_13_277
*1451 FILLER_0_13_281
*1452 FILLER_0_13_292
*1453 FILLER_0_13_3
*1454 FILLER_0_13_335
*1455 FILLER_0_13_337
*1456 FILLER_0_13_349
*1457 FILLER_0_13_40
*1458 FILLER_0_13_54
*1459 FILLER_0_13_57
*1460 FILLER_0_13_69
*1461 FILLER_0_14_135
*1462 FILLER_0_14_139
*1463 FILLER_0_14_157
*1464 FILLER_0_14_185
*1465 FILLER_0_14_193
*1466 FILLER_0_14_213
*1467 FILLER_0_14_217
*1468 FILLER_0_14_227
*1469 FILLER_0_14_24
*1470 FILLER_0_14_251
*1471 FILLER_0_14_287
*1472 FILLER_0_14_29
*1473 FILLER_0_14_297
*1474 FILLER_0_14_3
*1475 FILLER_0_14_309
*1476 FILLER_0_14_329
*1477 FILLER_0_14_348
*1478 FILLER_0_14_53
*1479 FILLER_0_14_7
*1480 FILLER_0_14_71
*1481 FILLER_0_14_80
*1482 FILLER_0_15_100
*1483 FILLER_0_15_110
*1484 FILLER_0_15_113
*1485 FILLER_0_15_119
*1486 FILLER_0_15_136
*1487 FILLER_0_15_158
*1488 FILLER_0_15_164
*1489 FILLER_0_15_177
*1490 FILLER_0_15_19
*1491 FILLER_0_15_223
*1492 FILLER_0_15_230
*1493 FILLER_0_15_242
*1494 FILLER_0_15_246
*1495 FILLER_0_15_250
*1496 FILLER_0_15_254
*1497 FILLER_0_15_266
*1498 FILLER_0_15_278
*1499 FILLER_0_15_28
*1500 FILLER_0_15_281
*1501 FILLER_0_15_298
*1502 FILLER_0_15_325
*1503 FILLER_0_15_345
*1504 FILLER_0_15_44
*1505 FILLER_0_15_57
*1506 FILLER_0_15_61
*1507 FILLER_0_16_107
*1508 FILLER_0_16_117
*1509 FILLER_0_16_138
*1510 FILLER_0_16_141
*1511 FILLER_0_16_15
*1512 FILLER_0_16_152
*1513 FILLER_0_16_163
*1514 FILLER_0_16_183
*1515 FILLER_0_16_187
*1516 FILLER_0_16_192
*1517 FILLER_0_16_197
*1518 FILLER_0_16_217
*1519 FILLER_0_16_221
*1520 FILLER_0_16_238
*1521 FILLER_0_16_249
*1522 FILLER_0_16_253
*1523 FILLER_0_16_29
*1524 FILLER_0_16_295
*1525 FILLER_0_16_299
*1526 FILLER_0_16_3
*1527 FILLER_0_16_324
*1528 FILLER_0_16_333
*1529 FILLER_0_16_52
*1530 FILLER_0_16_64
*1531 FILLER_0_16_68
*1532 FILLER_0_16_77
*1533 FILLER_0_16_83
*1534 FILLER_0_16_85
*1535 FILLER_0_17_103
*1536 FILLER_0_17_111
*1537 FILLER_0_17_123
*1538 FILLER_0_17_162
*1539 FILLER_0_17_173
*1540 FILLER_0_17_177
*1541 FILLER_0_17_186
*1542 FILLER_0_17_196
*1543 FILLER_0_17_201
*1544 FILLER_0_17_205
*1545 FILLER_0_17_228
*1546 FILLER_0_17_240
*1547 FILLER_0_17_286
*1548 FILLER_0_17_32
*1549 FILLER_0_17_334
*1550 FILLER_0_17_345
*1551 FILLER_0_17_39
*1552 FILLER_0_17_45
*1553 FILLER_0_17_60
*1554 FILLER_0_17_72
*1555 FILLER_0_17_90
*1556 FILLER_0_17_98
*1557 FILLER_0_18_111
*1558 FILLER_0_18_116
*1559 FILLER_0_18_128
*1560 FILLER_0_18_148
*1561 FILLER_0_18_15
*1562 FILLER_0_18_170
*1563 FILLER_0_18_175
*1564 FILLER_0_18_179
*1565 FILLER_0_18_19
*1566 FILLER_0_18_213
*1567 FILLER_0_18_219
*1568 FILLER_0_18_239
*1569 FILLER_0_18_251
*1570 FILLER_0_18_26
*1571 FILLER_0_18_260
*1572 FILLER_0_18_292
*1573 FILLER_0_18_3
*1574 FILLER_0_18_302
*1575 FILLER_0_18_309
*1576 FILLER_0_18_316
*1577 FILLER_0_18_328
*1578 FILLER_0_18_350
*1579 FILLER_0_18_46
*1580 FILLER_0_18_55
*1581 FILLER_0_18_93
*1582 FILLER_0_19_103
*1583 FILLER_0_19_164
*1584 FILLER_0_19_169
*1585 FILLER_0_19_176
*1586 FILLER_0_19_197
*1587 FILLER_0_19_209
*1588 FILLER_0_19_222
*1589 FILLER_0_19_233
*1590 FILLER_0_19_238
*1591 FILLER_0_19_247
*1592 FILLER_0_19_258
*1593 FILLER_0_19_276
*1594 FILLER_0_19_281
*1595 FILLER_0_19_30
*1596 FILLER_0_19_316
*1597 FILLER_0_19_320
*1598 FILLER_0_19_334
*1599 FILLER_0_19_348
*1600 FILLER_0_19_41
*1601 FILLER_0_19_52
*1602 FILLER_0_19_60
*1603 FILLER_0_19_75
*1604 FILLER_0_19_79
*1605 FILLER_0_19_83
*1606 FILLER_0_19_95
*1607 FILLER_0_1_110
*1608 FILLER_0_1_113
*1609 FILLER_0_1_15
*1610 FILLER_0_1_159
*1611 FILLER_0_1_169
*1612 FILLER_0_1_179
*1613 FILLER_0_1_185
*1614 FILLER_0_1_205
*1615 FILLER_0_1_221
*1616 FILLER_0_1_225
*1617 FILLER_0_1_236
*1618 FILLER_0_1_27
*1619 FILLER_0_1_270
*1620 FILLER_0_1_278
*1621 FILLER_0_1_3
*1622 FILLER_0_1_321
*1623 FILLER_0_1_334
*1624 FILLER_0_1_34
*1625 FILLER_0_1_345
*1626 FILLER_0_1_55
*1627 FILLER_0_1_62
*1628 FILLER_0_1_87
*1629 FILLER_0_1_93
*1630 FILLER_0_20_106
*1631 FILLER_0_20_117
*1632 FILLER_0_20_130
*1633 FILLER_0_20_134
*1634 FILLER_0_20_141
*1635 FILLER_0_20_15
*1636 FILLER_0_20_153
*1637 FILLER_0_20_161
*1638 FILLER_0_20_246
*1639 FILLER_0_20_258
*1640 FILLER_0_20_262
*1641 FILLER_0_20_27
*1642 FILLER_0_20_278
*1643 FILLER_0_20_284
*1644 FILLER_0_20_3
*1645 FILLER_0_20_302
*1646 FILLER_0_20_309
*1647 FILLER_0_20_327
*1648 FILLER_0_20_42
*1649 FILLER_0_20_56
*1650 FILLER_0_20_65
*1651 FILLER_0_20_79
*1652 FILLER_0_21_11
*1653 FILLER_0_21_113
*1654 FILLER_0_21_128
*1655 FILLER_0_21_135
*1656 FILLER_0_21_148
*1657 FILLER_0_21_152
*1658 FILLER_0_21_194
*1659 FILLER_0_21_20
*1660 FILLER_0_21_206
*1661 FILLER_0_21_221
*1662 FILLER_0_21_225
*1663 FILLER_0_21_229
*1664 FILLER_0_21_237
*1665 FILLER_0_21_265
*1666 FILLER_0_21_276
*1667 FILLER_0_21_290
*1668 FILLER_0_21_3
*1669 FILLER_0_21_31
*1670 FILLER_0_21_310
*1671 FILLER_0_21_319
*1672 FILLER_0_21_327
*1673 FILLER_0_21_334
*1674 FILLER_0_21_343
*1675 FILLER_0_21_37
*1676 FILLER_0_21_41
*1677 FILLER_0_21_54
*1678 FILLER_0_21_57
*1679 FILLER_0_21_73
*1680 FILLER_0_21_95
*1681 FILLER_0_22_111
*1682 FILLER_0_22_123
*1683 FILLER_0_22_137
*1684 FILLER_0_22_165
*1685 FILLER_0_22_188
*1686 FILLER_0_22_197
*1687 FILLER_0_22_221
*1688 FILLER_0_22_243
*1689 FILLER_0_22_251