*SPEF "ieee 1481-1999"
*DESIGN "tt_um_divider_urielcho"
*DATE "11:11:11 Fri 11 11, 1111"
*VENDOR "OpenRCX"
*PROGRAM "Parallel Extraction"
*VERSION "1.0"
*DESIGN_FLOW "NAME_SCOPE LOCAL" "PIN_CAP NONE"
*DIVIDER /
*DELIMITER :
*BUS_DELIMITER []
*T_UNIT 1 NS
*C_UNIT 1 PF
*R_UNIT 1 OHM
*L_UNIT 1 HENRY

*NAME_MAP
*3 clk
*4 ena
*5 rst_n
*6 ui_in[0]
*7 ui_in[1]
*8 ui_in[2]
*9 ui_in[3]
*10 ui_in[4]
*11 ui_in[5]
*12 ui_in[6]
*13 ui_in[7]
*14 uio_in[0]
*15 uio_in[1]
*16 uio_in[2]
*17 uio_in[3]
*18 uio_in[4]
*19 uio_in[5]
*20 uio_in[6]
*21 uio_in[7]
*22 net146
*23 net147
*24 net148
*25 net149
*26 net150
*27 net151
*28 net152
*29 net153
*30 net154
*31 net155
*32 net156
*33 net157
*34 net158
*35 net159
*36 net160
*37 net161
*38 uo_out[0]
*39 uo_out[1]
*40 uo_out[2]
*41 uo_out[3]
*42 uo_out[4]
*43 uo_out[5]
*44 uo_out[6]
*45 uo_out[7]
*46 M0\.counter2\[0\]
*47 M0\.counter2\[10\]
*48 M0\.counter2\[11\]
*49 M0\.counter2\[12\]
*50 M0\.counter2\[13\]
*51 M0\.counter2\[14\]
*52 M0\.counter2\[15\]
*53 M0\.counter2\[16\]
*54 M0\.counter2\[17\]
*55 M0\.counter2\[18\]
*56 M0\.counter2\[19\]
*57 M0\.counter2\[1\]
*58 M0\.counter2\[20\]
*59 M0\.counter2\[21\]
*60 M0\.counter2\[22\]
*61 M0\.counter2\[23\]
*62 M0\.counter2\[24\]
*63 M0\.counter2\[25\]
*64 M0\.counter2\[26\]
*65 M0\.counter2\[27\]
*66 M0\.counter2\[2\]
*67 M0\.counter2\[3\]
*68 M0\.counter2\[4\]
*69 M0\.counter2\[5\]
*70 M0\.counter2\[6\]
*71 M0\.counter2\[7\]
*72 M0\.counter2\[8\]
*73 M0\.counter2\[9\]
*74 M0\.counter3\[0\]
*75 M0\.counter3\[10\]
*76 M0\.counter3\[11\]
*77 M0\.counter3\[12\]
*78 M0\.counter3\[13\]
*79 M0\.counter3\[14\]
*80 M0\.counter3\[15\]
*81 M0\.counter3\[16\]
*82 M0\.counter3\[17\]
*83 M0\.counter3\[18\]
*84 M0\.counter3\[19\]
*85 M0\.counter3\[1\]
*86 M0\.counter3\[20\]
*87 M0\.counter3\[21\]
*88 M0\.counter3\[22\]
*89 M0\.counter3\[23\]
*90 M0\.counter3\[24\]
*91 M0\.counter3\[25\]
*92 M0\.counter3\[26\]
*93 M0\.counter3\[27\]
*94 M0\.counter3\[2\]
*95 M0\.counter3\[3\]
*96 M0\.counter3\[4\]
*97 M0\.counter3\[5\]
*98 M0\.counter3\[6\]
*99 M0\.counter3\[7\]
*100 M0\.counter3\[8\]
*101 M0\.counter3\[9\]
*102 M0\.counter4\[0\]
*103 M0\.counter4\[10\]
*104 M0\.counter4\[11\]
*105 M0\.counter4\[12\]
*106 M0\.counter4\[13\]
*107 M0\.counter4\[14\]
*108 M0\.counter4\[15\]
*109 M0\.counter4\[16\]
*110 M0\.counter4\[17\]
*111 M0\.counter4\[18\]
*112 M0\.counter4\[19\]
*113 M0\.counter4\[1\]
*114 M0\.counter4\[20\]
*115 M0\.counter4\[21\]
*116 M0\.counter4\[22\]
*117 M0\.counter4\[23\]
*118 M0\.counter4\[24\]
*119 M0\.counter4\[25\]
*120 M0\.counter4\[26\]
*121 M0\.counter4\[27\]
*122 M0\.counter4\[2\]
*123 M0\.counter4\[3\]
*124 M0\.counter4\[4\]
*125 M0\.counter4\[5\]
*126 M0\.counter4\[6\]
*127 M0\.counter4\[7\]
*128 M0\.counter4\[8\]
*129 M0\.counter4\[9\]
*130 M0\.counter5\[0\]
*131 M0\.counter5\[10\]
*132 M0\.counter5\[11\]
*133 M0\.counter5\[12\]
*134 M0\.counter5\[13\]
*135 M0\.counter5\[14\]
*136 M0\.counter5\[15\]
*137 M0\.counter5\[16\]
*138 M0\.counter5\[17\]
*139 M0\.counter5\[18\]
*140 M0\.counter5\[19\]
*141 M0\.counter5\[1\]
*142 M0\.counter5\[20\]
*143 M0\.counter5\[21\]
*144 M0\.counter5\[22\]
*145 M0\.counter5\[23\]
*146 M0\.counter5\[24\]
*147 M0\.counter5\[25\]
*148 M0\.counter5\[26\]
*149 M0\.counter5\[27\]
*150 M0\.counter5\[2\]
*151 M0\.counter5\[3\]
*152 M0\.counter5\[4\]
*153 M0\.counter5\[5\]
*154 M0\.counter5\[6\]
*155 M0\.counter5\[7\]
*156 M0\.counter5\[8\]
*157 M0\.counter5\[9\]
*158 M0\.counter6\[0\]
*159 M0\.counter6\[10\]
*160 M0\.counter6\[11\]
*161 M0\.counter6\[12\]
*162 M0\.counter6\[13\]
*163 M0\.counter6\[14\]
*164 M0\.counter6\[15\]
*165 M0\.counter6\[16\]
*166 M0\.counter6\[17\]
*167 M0\.counter6\[18\]
*168 M0\.counter6\[19\]
*169 M0\.counter6\[1\]
*170 M0\.counter6\[20\]
*171 M0\.counter6\[21\]
*172 M0\.counter6\[22\]
*173 M0\.counter6\[23\]
*174 M0\.counter6\[24\]
*175 M0\.counter6\[25\]
*176 M0\.counter6\[26\]
*177 M0\.counter6\[27\]
*178 M0\.counter6\[2\]
*179 M0\.counter6\[3\]
*180 M0\.counter6\[4\]
*181 M0\.counter6\[5\]
*182 M0\.counter6\[6\]
*183 M0\.counter6\[7\]
*184 M0\.counter6\[8\]
*185 M0\.counter6\[9\]
*186 M0\.counter7\[0\]
*187 M0\.counter7\[10\]
*188 M0\.counter7\[11\]
*189 M0\.counter7\[12\]
*190 M0\.counter7\[13\]
*191 M0\.counter7\[14\]
*192 M0\.counter7\[15\]
*193 M0\.counter7\[16\]
*194 M0\.counter7\[17\]
*195 M0\.counter7\[18\]
*196 M0\.counter7\[19\]
*197 M0\.counter7\[1\]
*198 M0\.counter7\[20\]
*199 M0\.counter7\[21\]
*200 M0\.counter7\[22\]
*201 M0\.counter7\[23\]
*202 M0\.counter7\[24\]
*203 M0\.counter7\[25\]
*204 M0\.counter7\[26\]
*205 M0\.counter7\[27\]
*206 M0\.counter7\[2\]
*207 M0\.counter7\[3\]
*208 M0\.counter7\[4\]
*209 M0\.counter7\[5\]
*210 M0\.counter7\[6\]
*211 M0\.counter7\[7\]
*212 M0\.counter7\[8\]
*213 M0\.counter7\[9\]
*214 M0\.counter8\[0\]
*215 M0\.counter8\[10\]
*216 M0\.counter8\[11\]
*217 M0\.counter8\[12\]
*218 M0\.counter8\[13\]
*219 M0\.counter8\[14\]
*220 M0\.counter8\[15\]
*221 M0\.counter8\[16\]
*222 M0\.counter8\[17\]
*223 M0\.counter8\[18\]
*224 M0\.counter8\[19\]
*225 M0\.counter8\[1\]
*226 M0\.counter8\[20\]
*227 M0\.counter8\[21\]
*228 M0\.counter8\[22\]
*229 M0\.counter8\[23\]
*230 M0\.counter8\[24\]
*231 M0\.counter8\[25\]
*232 M0\.counter8\[26\]
*233 M0\.counter8\[27\]
*234 M0\.counter8\[2\]
*235 M0\.counter8\[3\]
*236 M0\.counter8\[4\]
*237 M0\.counter8\[5\]
*238 M0\.counter8\[6\]
*239 M0\.counter8\[7\]
*240 M0\.counter8\[8\]
*241 M0\.counter8\[9\]
*242 M0\.counter\[0\]
*243 M0\.counter\[10\]
*244 M0\.counter\[11\]
*245 M0\.counter\[12\]
*246 M0\.counter\[13\]
*247 M0\.counter\[14\]
*248 M0\.counter\[15\]
*249 M0\.counter\[16\]
*250 M0\.counter\[17\]
*251 M0\.counter\[18\]
*252 M0\.counter\[19\]
*253 M0\.counter\[1\]
*254 M0\.counter\[20\]
*255 M0\.counter\[21\]
*256 M0\.counter\[22\]
*257 M0\.counter\[23\]
*258 M0\.counter\[24\]
*259 M0\.counter\[25\]
*260 M0\.counter\[26\]
*261 M0\.counter\[27\]
*262 M0\.counter\[2\]
*263 M0\.counter\[3\]
*264 M0\.counter\[4\]
*265 M0\.counter\[5\]
*266 M0\.counter\[6\]
*267 M0\.counter\[7\]
*268 M0\.counter\[8\]
*269 M0\.counter\[9\]
*270 M0\.cout1
*271 M0\.cout2
*272 M0\.cout3
*273 M0\.cout4
*274 M0\.cout5
*275 M0\.cout6
*276 M0\.cout7
*277 M0\.cout8
*278 _0000_
*279 _0001_
*280 _0002_
*281 _0003_
*282 _0004_
*283 _0005_
*284 _0006_
*285 _0007_
*286 _0013_
*287 _0014_
*288 _0015_
*289 _0041_
*290 _0042_
*291 _0043_
*292 _0044_
*293 _0069_
*294 _0070_
*295 _0071_
*296 _0072_
*297 _0073_
*298 _0097_
*299 _0098_
*300 _0099_
*301 _0100_
*302 _0101_
*303 _0102_
*304 _0125_
*305 _0126_
*306 _0127_
*307 _0128_
*308 _0129_
*309 _0130_
*310 _0131_
*311 _0153_
*312 _0154_
*313 _0155_
*314 _0156_
*315 _0157_
*316 _0158_
*317 _0159_
*318 _0160_
*319 _0181_
*320 _0209_
*321 _0210_
*322 _0232_
*323 _0233_
*324 _0234_
*325 _0235_
*326 _0236_
*327 _0237_
*328 _0238_
*329 _0239_
*330 _0240_
*331 _0241_
*332 _0242_
*333 _0243_
*334 _0244_
*335 _0245_
*336 _0246_
*337 _0247_
*338 _0248_
*339 _0249_
*340 _0250_
*341 _0251_
*342 _0252_
*343 _0253_
*344 _0254_
*345 _0255_
*346 _0256_
*347 _0257_
*348 _0258_
*349 _0259_
*350 _0260_
*351 _0261_
*352 _0262_
*353 _0263_
*354 _0264_
*355 _0265_
*356 _0266_
*357 _0267_
*358 _0268_
*359 _0269_
*360 _0270_
*361 _0271_
*362 _0272_
*363 _0273_
*364 _0274_
*365 _0275_
*366 _0276_
*367 _0277_
*368 _0278_
*369 _0279_
*370 _0280_
*371 _0281_
*372 _0282_
*373 _0283_
*374 _0284_
*375 _0285_
*376 _0286_
*377 _0287_
*378 _0288_
*379 _0289_
*380 _0290_
*381 _0291_
*382 _0292_
*383 _0293_
*384 _0294_
*385 _0295_
*386 _0296_
*387 _0297_
*388 _0298_
*389 _0299_
*390 _0300_
*391 _0301_
*392 _0302_
*393 _0303_
*394 _0304_
*395 _0305_
*396 _0306_
*397 _0307_
*398 _0308_
*399 _0309_
*400 _0310_
*401 _0311_
*402 _0312_
*403 _0313_
*404 _0314_
*405 _0315_
*406 _0316_
*407 _0317_
*408 _0318_
*409 _0319_
*410 _0320_
*411 _0321_
*412 _0322_
*413 _0323_
*414 _0324_
*415 _0325_
*416 _0326_
*417 _0327_
*418 _0328_
*419 _0329_
*420 _0330_
*421 _0331_
*422 _0332_
*423 _0333_
*424 _0334_
*425 _0335_
*426 _0336_
*427 _0337_
*428 _0338_
*429 _0339_
*430 _0340_
*431 _0341_
*432 _0342_
*433 _0343_
*434 _0344_
*435 _0345_
*436 _0346_
*437 _0347_
*438 _0348_
*439 _0349_
*440 _0350_
*441 _0351_
*442 _0352_
*443 _0353_
*444 _0354_
*445 _0355_
*446 _0356_
*447 _0357_
*448 _0358_
*449 _0359_
*450 _0360_
*451 _0361_
*452 _0362_
*453 _0363_
*454 _0364_
*455 _0365_
*456 _0366_
*457 _0367_
*458 _0368_
*459 _0369_
*460 _0370_
*461 _0371_
*462 _0372_
*463 _0373_
*464 _0374_
*465 _0375_
*466 _0376_
*467 _0377_
*468 _0378_
*469 _0379_
*470 _0380_
*471 _0381_
*472 _0382_
*473 _0383_
*474 _0384_
*475 _0385_
*476 _0386_
*477 _0387_
*478 clknet_0_clk
*479 clknet_1_0__leaf_clk
*480 clknet_1_1__leaf_clk
*481 clknet_leaf_0_clk
*482 clknet_leaf_10_clk
*483 clknet_leaf_1_clk
*484 clknet_leaf_2_clk
*485 clknet_leaf_3_clk
*486 clknet_leaf_4_clk
*487 clknet_leaf_5_clk
*488 clknet_leaf_6_clk
*489 clknet_leaf_7_clk
*490 clknet_leaf_8_clk
*491 clknet_leaf_9_clk
*492 net1
*493 net10
*494 net100
*495 net101
*496 net102
*497 net103
*498 net104
*499 net105
*500 net106
*501 net107
*502 net108
*503 net109
*504 net11
*505 net110
*506 net111
*507 net112
*508 net113
*509 net114
*510 net115
*511 net116
*512 net117
*513 net118
*514 net119
*515 net12
*516 net120
*517 net121
*518 net122
*519 net123
*520 net124
*521 net125
*522 net126
*523 net127
*524 net128
*525 net129
*526 net13
*527 net130
*528 net131
*529 net132
*530 net133
*531 net134
*532 net135
*533 net136
*534 net137
*535 net138
*536 net139
*537 net14
*538 net140
*539 net141
*540 net142
*541 net143
*542 net144
*543 net145
*544 net15
*545 net16
*546 net162
*547 net163
*548 net164
*549 net165
*550 net166
*551 net167
*552 net168
*553 net169
*554 net17
*555 net170
*556 net171
*557 net172
*558 net173
*559 net174
*560 net175
*561 net176
*562 net177
*563 net178
*564 net179
*565 net18
*566 net180
*567 net181
*568 net182
*569 net183
*570 net184
*571 net185
*572 net186
*573 net187
*574 net188
*575 net189
*576 net19
*577 net190
*578 net191
*579 net192
*580 net193
*581 net194
*582 net195
*583 net196
*584 net197
*585 net198
*586 net199
*587 net2
*588 net20
*589 net200
*590 net201
*591 net202
*592 net203
*593 net204
*594 net205
*595 net206
*596 net207
*597 net208
*598 net209
*599 net21
*600 net210
*601 net211
*602 net212
*603 net22
*604 net23
*605 net24
*606 net25
*607 net26
*608 net27
*609 net28
*610 net29
*611 net3
*612 net30
*613 net31
*614 net32
*615 net33
*616 net34
*617 net35
*618 net36
*619 net37
*620 net38
*621 net39
*622 net4
*623 net40
*624 net41
*625 net42
*626 net43
*627 net44
*628 net45
*629 net46
*630 net47
*631 net48
*632 net49
*633 net5
*634 net50
*635 net51
*636 net52
*637 net53
*638 net54
*639 net55
*640 net56
*641 net57
*642 net58
*643 net59
*644 net6
*645 net60
*646 net61
*647 net62
*648 net63
*649 net64
*650 net65
*651 net66
*652 net67
*653 net68
*654 net69
*655 net7
*656 net70
*657 net71
*658 net72
*659 net73
*660 net74
*661 net75
*662 net76
*663 net77
*664 net78
*665 net79
*666 net8
*667 net80
*668 net81
*669 net82
*670 net83
*671 net84
*672 net85
*673 net86
*674 net87
*675 net88
*676 net89
*677 net9
*678 net90
*679 net91
*680 net92
*681 net93
*682 net94
*683 net95
*684 net96
*685 net97
*686 net98
*687 net99
*688 FILLER_0_0_109
*689 FILLER_0_0_113
*690 FILLER_0_0_125
*691 FILLER_0_0_137
*692 FILLER_0_0_141
*693 FILLER_0_0_15
*694 FILLER_0_0_153
*695 FILLER_0_0_165
*696 FILLER_0_0_169
*697 FILLER_0_0_181
*698 FILLER_0_0_193
*699 FILLER_0_0_197
*700 FILLER_0_0_209
*701 FILLER_0_0_221
*702 FILLER_0_0_225
*703 FILLER_0_0_237
*704 FILLER_0_0_249
*705 FILLER_0_0_253
*706 FILLER_0_0_265
*707 FILLER_0_0_27
*708 FILLER_0_0_277
*709 FILLER_0_0_281
*710 FILLER_0_0_29
*711 FILLER_0_0_293
*712 FILLER_0_0_3
*713 FILLER_0_0_305
*714 FILLER_0_0_309
*715 FILLER_0_0_321
*716 FILLER_0_0_333
*717 FILLER_0_0_337
*718 FILLER_0_0_349
*719 FILLER_0_0_41
*720 FILLER_0_0_53
*721 FILLER_0_0_57
*722 FILLER_0_0_69
*723 FILLER_0_0_81
*724 FILLER_0_0_85
*725 FILLER_0_0_97
*726 FILLER_0_10_133
*727 FILLER_0_10_15
*728 FILLER_0_10_157
*729 FILLER_0_10_175
*730 FILLER_0_10_182
*731 FILLER_0_10_190
*732 FILLER_0_10_213
*733 FILLER_0_10_221
*734 FILLER_0_10_239
*735 FILLER_0_10_251
*736 FILLER_0_10_253
*737 FILLER_0_10_268
*738 FILLER_0_10_27
*739 FILLER_0_10_280
*740 FILLER_0_10_29
*741 FILLER_0_10_292
*742 FILLER_0_10_3
*743 FILLER_0_10_304
*744 FILLER_0_10_309
*745 FILLER_0_10_321
*746 FILLER_0_10_333
*747 FILLER_0_10_345
*748 FILLER_0_10_35
*749 FILLER_0_10_85
*750 FILLER_0_10_94
*751 FILLER_0_11_106
*752 FILLER_0_11_113
*753 FILLER_0_11_125
*754 FILLER_0_11_15
*755 FILLER_0_11_152
*756 FILLER_0_11_159
*757 FILLER_0_11_167
*758 FILLER_0_11_169
*759 FILLER_0_11_186
*760 FILLER_0_11_198
*761 FILLER_0_11_210
*762 FILLER_0_11_218
*763 FILLER_0_11_241
*764 FILLER_0_11_253
*765 FILLER_0_11_259
*766 FILLER_0_11_27
*767 FILLER_0_11_276
*768 FILLER_0_11_287
*769 FILLER_0_11_299
*770 FILLER_0_11_3
*771 FILLER_0_11_311
*772 FILLER_0_11_323
*773 FILLER_0_11_335
*774 FILLER_0_11_337
*775 FILLER_0_11_349
*776 FILLER_0_11_51
*777 FILLER_0_11_55
*778 FILLER_0_11_63
*779 FILLER_0_11_71
*780 FILLER_0_12_11
*781 FILLER_0_12_138
*782 FILLER_0_12_144
*783 FILLER_0_12_156
*784 FILLER_0_12_194
*785 FILLER_0_12_197
*786 FILLER_0_12_209
*787 FILLER_0_12_246
*788 FILLER_0_12_253
*789 FILLER_0_12_29
*790 FILLER_0_12_290
*791 FILLER_0_12_3
*792 FILLER_0_12_302
*793 FILLER_0_12_309
*794 FILLER_0_12_321
*795 FILLER_0_12_333
*796 FILLER_0_12_345
*797 FILLER_0_12_36
*798 FILLER_0_12_44
*799 FILLER_0_12_56
*800 FILLER_0_12_64
*801 FILLER_0_12_88
*802 FILLER_0_13_107
*803 FILLER_0_13_129
*804 FILLER_0_13_136
*805 FILLER_0_13_148
*806 FILLER_0_13_155
*807 FILLER_0_13_169
*808 FILLER_0_13_181
*809 FILLER_0_13_220
*810 FILLER_0_13_241
*811 FILLER_0_13_253
*812 FILLER_0_13_278
*813 FILLER_0_13_281
*814 FILLER_0_13_3
*815 FILLER_0_13_301
*816 FILLER_0_13_313
*817 FILLER_0_13_325
*818 FILLER_0_13_333
*819 FILLER_0_13_337
*820 FILLER_0_13_349
*821 FILLER_0_13_49
*822 FILLER_0_13_55
*823 FILLER_0_13_57
*824 FILLER_0_13_61
*825 FILLER_0_13_65
*826 FILLER_0_13_83
*827 FILLER_0_13_95
*828 FILLER_0_14_109
*829 FILLER_0_14_11
*830 FILLER_0_14_121
*831 FILLER_0_14_133
*832 FILLER_0_14_139
*833 FILLER_0_14_141
*834 FILLER_0_14_168
*835 FILLER_0_14_190
*836 FILLER_0_14_197
*837 FILLER_0_14_209
*838 FILLER_0_14_226
*839 FILLER_0_14_234
*840 FILLER_0_14_245
*841 FILLER_0_14_251
*842 FILLER_0_14_253
*843 FILLER_0_14_268
*844 FILLER_0_14_280
*845 FILLER_0_14_299
*846 FILLER_0_14_3
*847 FILLER_0_14_307
*848 FILLER_0_14_309
*849 FILLER_0_14_32
*850 FILLER_0_14_321
*851 FILLER_0_14_333
*852 FILLER_0_14_345
*853 FILLER_0_14_44
*854 FILLER_0_14_52
*855 FILLER_0_14_75
*856 FILLER_0_14_83
*857 FILLER_0_14_85
*858 FILLER_0_14_97
*859 FILLER_0_15_101
*860 FILLER_0_15_106
*861 FILLER_0_15_110
*862 FILLER_0_15_113
*863 FILLER_0_15_125
*864 FILLER_0_15_137
*865 FILLER_0_15_143
*866 FILLER_0_15_15
*867 FILLER_0_15_172
*868 FILLER_0_15_189
*869 FILLER_0_15_201
*870 FILLER_0_15_207
*871 FILLER_0_15_24
*872 FILLER_0_15_241
*873 FILLER_0_15_265
*874 FILLER_0_15_277
*875 FILLER_0_15_281
*876 FILLER_0_15_298
*877 FILLER_0_15_3
*878 FILLER_0_15_310
*879 FILLER_0_15_322
*880 FILLER_0_15_334
*881 FILLER_0_15_337
*882 FILLER_0_15_349
*883 FILLER_0_15_36
*884 FILLER_0_15_44
*885 FILLER_0_15_89
*886 FILLER_0_16_11
*887 FILLER_0_16_129
*888 FILLER_0_16_137
*889 FILLER_0_16_141
*890 FILLER_0_16_153
*891 FILLER_0_16_169
*892 FILLER_0_16_175
*893 FILLER_0_16_179
*894 FILLER_0_16_191
*895 FILLER_0_16_195
*896 FILLER_0_16_197
*897 FILLER_0_16_205
*898 FILLER_0_16_231
*899 FILLER_0_16_235
*900 FILLER_0_16_269
*901 FILLER_0_16_281
*902 FILLER_0_16_29
*903 FILLER_0_16_3
*904 FILLER_0_16_305
*905 FILLER_0_16_309
*906 FILLER_0_16_321
*907 FILLER_0_16_333
*908 FILLER_0_16_345
*909 FILLER_0_16_52
*910 FILLER_0_16_79
*911 FILLER_0_16_83
*912 FILLER_0_16_85
*913 FILLER_0_17_132
*914 FILLER_0_17_144
*915 FILLER_0_17_167
*916 FILLER_0_17_169
*917 FILLER_0_17_181
*918 FILLER_0_17_193
*919 FILLER_0_17_205
*920 FILLER_0_17_211
*921 FILLER_0_17_221
*922 FILLER_0_17_225
*923 FILLER_0_17_237
*924 FILLER_0_17_263
*925 FILLER_0_17_275
*926 FILLER_0_17_281
*927 FILLER_0_17_289
*928 FILLER_0_17_3
*929 FILLER_0_17_311
*930 FILLER_0_17_319
*931 FILLER_0_17_337
*932 FILLER_0_17_349
*933 FILLER_0_17_47
*934 FILLER_0_17_55
*935 FILLER_0_17_57
*936 FILLER_0_17_74
*937 FILLER_0_18_104
*938 FILLER_0_18_11
*939 FILLER_0_18_135
*940 FILLER_0_18_139
*941 FILLER_0_18_141
*942 FILLER_0_18_164
*943 FILLER_0_18_176
*944 FILLER_0_18_188
*945 FILLER_0_18_219
*946 FILLER_0_18_231
*947 FILLER_0_18_243
*948 FILLER_0_18_247
*949 FILLER_0_18_251
*950 FILLER_0_18_253
*951 FILLER_0_18_265
*952 FILLER_0_18_269
*953 FILLER_0_18_29
*954 FILLER_0_18_295
*955 FILLER_0_18_3
*956 FILLER_0_18_307
*957 FILLER_0_18_309
*958 FILLER_0_18_317
*959 FILLER_0_18_339
*960 FILLER_0_18_41
*961 FILLER_0_18_53
*962 FILLER_0_18_57
*963 FILLER_0_18_77
*964 FILLER_0_18_83
*965 FILLER_0_18_85
*966 FILLER_0_18_97
*967 FILLER_0_19_104
*968 FILLER_0_19_129
*969 FILLER_0_19_137
*970 FILLER_0_19_167
*971 FILLER_0_19_172
*972 FILLER_0_19_184
*973 FILLER_0_19_222
*974 FILLER_0_19_241
*975 FILLER_0_19_253
*976 FILLER_0_19_261
*977 FILLER_0_19_281
*978 FILLER_0_19_290
*979 FILLER_0_19_3
*980 FILLER_0_19_302
*981 FILLER_0_19_31
*982 FILLER_0_19_314
*983 FILLER_0_19_346
*984 FILLER_0_19_350
*985 FILLER_0_19_43
*986 FILLER_0_19_51
*987 FILLER_0_19_92
*988 FILLER_0_1_105
*989 FILLER_0_1_111
*990 FILLER_0_1_113
*991 FILLER_0_1_125
*992 FILLER_0_1_137
*993 FILLER_0_1_149
*994 FILLER_0_1_15
*995 FILLER_0_1_161
*996 FILLER_0_1_167
*997 FILLER_0_1_169
*998 FILLER_0_1_181
*999 FILLER_0_1_193
*1000 FILLER_0_1_205
*1001 FILLER_0_1_217
*1002 FILLER_0_1_223
*1003 FILLER_0_1_225
*1004 FILLER_0_1_237
*1005 FILLER_0_1_249
*1006 FILLER_0_1_261
*1007 FILLER_0_1_27
*1008 FILLER_0_1_273
*1009 FILLER_0_1_279
*1010 FILLER_0_1_281
*1011 FILLER_0_1_293
*1012 FILLER_0_1_3
*1013 FILLER_0_1_305
*1014 FILLER_0_1_317
*1015 FILLER_0_1_329
*1016 FILLER_0_1_335
*1017 FILLER_0_1_337
*1018 FILLER_0_1_349
*1019 FILLER_0_1_39
*1020 FILLER_0_1_51
*1021 FILLER_0_1_55
*1022 FILLER_0_1_57
*1023 FILLER_0_1_69
*1024 FILLER_0_1_81
*1025 FILLER_0_1_93
*1026 FILLER_0_20_11
*1027 FILLER_0_20_126
*1028 FILLER_0_20_138
*1029 FILLER_0_20_173
*1030 FILLER_0_20_185
*1031 FILLER_0_20_213
*1032 FILLER_0_20_221
*1033 FILLER_0_20_251
*1034 FILLER_0_20_253
*1035 FILLER_0_20_265
*1036 FILLER_0_20_297
*1037 FILLER_0_20_3
*1038 FILLER_0_20_305
*1039 FILLER_0_20_309
*1040 FILLER_0_20_349
*1041 FILLER_0_20_45
*1042 FILLER_0_20_53
*1043 FILLER_0_20_82
*1044 FILLER_0_20_85
*1045 FILLER_0_20_97
*1046 FILLER_0_21_138
*1047 FILLER_0_21_167
*1048 FILLER_0_21_169
*1049 FILLER_0_21_181
*1050 FILLER_0_21_203
*1051 FILLER_0_21_209
*1052 FILLER_0_21_213
*1053 FILLER_0_21_221
*1054 FILLER_0_21_225
*1055 FILLER_0_21_251
*1056 FILLER_0_21_256
*1057 FILLER_0_21_268
*1058 FILLER_0_21_273
*1059 FILLER_0_21_297
*1060 FILLER_0_21_3
*1061 FILLER_0_21_309
*1062 FILLER_0_21_335
*1063 FILLER_0_21_337
*1064 FILLER_0_21_349
*1065 FILLER_0_21_37
*1066 FILLER_0_21_49
*1067 FILLER_0_21_55
*1068 FILLER_0_21_57
*1069 FILLER_0_21_7
*1070 FILLER_0_21_88
*1071 FILLER_0_22_118
*1072 FILLER_0_22_126
*1073 FILLER_0_22_138
*1074 FILLER_0_22_141
*1075 FILLER_0_22_145
*1076 FILLER_0_22_15
*1077 FILLER_0_22_159
*1078 FILLER_0_22_171
*1079 FILLER_0_22_183
*1080 FILLER_0_22_195
*1081 FILLER_0_22_213
*1082 FILLER_0_22_25
*1083 FILLER_0_22_251
*1084 FILLER_0_22_29
*1085 FILLER_0_22_292
*1086 FILLER_0_22_3
*1087 FILLER_0_22_304
*1088 FILLER_0_22_309
*1089 FILLER_0_22_339
*1090 FILLER_0_22_41
*1091 FILLER_0_22_49
*1092 FILLER_0_22_78
*1093 FILLER_0_22_92
*1094 FILLER_0_23_11
*1095 FILLER_0_23_111
*1096 FILLER_0_23_116
*1097 FILLER_0_23_128
*1098 FILLER_0_23_133
*1099 FILLER_0_23_145
*1100 FILLER_0_23_162
*1101 FILLER_0_23_169
*1102 FILLER_0_23_191
*1103 FILLER_0_23_212
*1104 FILLER_0_23_225
*1105 FILLER_0_23_247
*1106 FILLER_0_23_259
*1107 FILLER_0_23_271
*1108 FILLER_0_23_275
*1109 FILLER_0_23_279
*1110 FILLER_0_23_29
*1111 FILLER_0_23_297
*1112 FILLER_0_23_3
*1113 FILLER_0_23_309
*1114 FILLER_0_23_313
*1115 FILLER_0_23_330
*1116 FILLER_0_23_337
*1117 FILLER_0_23_349
*1118 FILLER_0_23_41
*1119 FILLER_0_23_53
*1120 FILLER_0_23_73
*1121 FILLER_0_23_85
*1122 FILLER_0_23_97
*1123 FILLER_0_24_125
*1124 FILLER_0_24_137
*1125 FILLER_0_24_141
*1126 FILLER_0_24_145
*1127 FILLER_0_24_162
*1128 FILLER_0_24_170
*1129 FILLER_0_24_176
*1130 FILLER_0_24_188
*1131 FILLER_0_24_194
*1132 FILLER_0_24_200
*1133 FILLER_0_24_218
*1134 FILLER_0_24_226
*1135 FILLER_0_24_244
*1136 FILLER_0_24_253
*1137 FILLER_0_24_259
*1138 FILLER_0_24_276
*1139 FILLER_0_24_288
*1140 FILLER_0_24_3
*1141 FILLER_0_24_300
*1142 FILLER_0_24_309
*1143 FILLER_0_24_313
*1144 FILLER_0_24_322
*1145 FILLER_0_24_341
*1146 FILLER_0_24_349
*1147 FILLER_0_24_45
*1148 FILLER_0_24_53
*1149 FILLER_0_24_70
*1150 FILLER_0_24_82
*1151 FILLER_0_24_85
*1152 FILLER_0_24_97
*1153 FILLER_0_25_129
*1154 FILLER_0_25_137
*1155 FILLER_0_25_166
*1156 FILLER_0_25_169
*1157 FILLER_0_25_208
*1158 FILLER_0_25_216
*1159 FILLER_0_25_220
*1160 FILLER_0_25_225
*1161 FILLER_0_25_237
*1162 FILLER_0_25_249
*1163 FILLER_0_25_255
*1164 FILLER_0_25_279
*1165 FILLER_0_25_287
*1166 FILLER_0_25_295
*1167 FILLER_0_25_3
*1168 FILLER_0_25_34
*1169 FILLER_0_25_343
*1170 FILLER_0_25_46
*1171 FILLER_0_25_89
*1172 FILLER_0_25_95
*1173 FILLER_0_26_119
*1174 FILLER_0_26_131
*1175 FILLER_0_26_139
*1176 FILLER_0_26_141
*1177 FILLER_0_26_15
*1178 FILLER_0_26_167
*1179 FILLER_0_26_175
*1180 FILLER_0_26_192
*1181 FILLER_0_26_197
*1182 FILLER_0_26_209
*1183 FILLER_0_26_23
*1184 FILLER_0_26_236
*1185 FILLER_0_26_248
*1186 FILLER_0_26_27
*1187 FILLER_0_26_284
*1188 FILLER_0_26_29
*1189 FILLER_0_26_296
*1190 FILLER_0_26_3
*1191 FILLER_0_26_300
*1192 FILLER_0_26_307
*1193 FILLER_0_26_312
*1194 FILLER_0_26_318
*1195 FILLER_0_26_344
*1196 FILLER_0_26_350
*1197 FILLER_0_26_41
*1198 FILLER_0_26_47
*1199 FILLER_0_26_51
*1200 FILLER_0_26_74
*1201 FILLER_0_26_82
*1202 FILLER_0_26_85
*1203 FILLER_0_26_93
*1204 FILLER_0_26_99
*1205 FILLER_0_27_109
*1206 FILLER_0_27_118
*1207 FILLER_0_27_122
*1208 FILLER_0_27_133
*1209 FILLER_0_27_145
*1210 FILLER_0_27_15
*1211 FILLER_0_27_152
*1212 FILLER_0_27_164
*1213 FILLER_0_27_169
*1214 FILLER_0_27_201
*1215 FILLER_0_27_21
*1216 FILLER_0_27_241
*1217 FILLER_0_27_253
*1218 FILLER_0_27_257
*1219 FILLER_0_27_277
*1220 FILLER_0_27_281
*1221 FILLER_0_27_293
*1222 FILLER_0_27_3
*1223 FILLER_0_27_315
*1224 FILLER_0_27_319
*1225 FILLER_0_27_337
*1226 FILLER_0_27_349
*1227 FILLER_0_27_35
*1228 FILLER_0_27_41
*1229 FILLER_0_27_55
*1230 FILLER_0_27_74
*1231 FILLER_0_27_86
*1232 FILLER_0_28_107
*1233 FILLER_0_28_11
*1234 FILLER_0_28_119
*1235 FILLER_0_28_131
*1236 FILLER_0_28_157
*1237 FILLER_0_28_169
*1238 FILLER_0_28_190
*1239 FILLER_0_28_197
*1240 FILLER_0_28_209
*1241 FILLER_0_28_231
*1242 FILLER_0_28_243
*1243 FILLER_0_28_251
*1244 FILLER_0_28_253
*1245 FILLER_0_28_259
*1246 FILLER_0_28_264
*1247 FILLER_0_28_276
*1248 FILLER_0_28_288
*1249 FILLER_0_28_3
*1250 FILLER_0_28_306
*1251 FILLER_0_28_315
*1252 FILLER_0_28_323
*1253 FILLER_0_28_342
*1254 FILLER_0_28_350
*1255 FILLER_0_28_38
*1256 FILLER_0_28_71
*1257 FILLER_0_28_83
*1258 FILLER_0_28_85
*1259 FILLER_0_29_109
*1260 FILLER_0_29_113
*1261 FILLER_0_29_125
*1262 FILLER_0_29_129
*1263 FILLER_0_29_169
*1264 FILLER_0_29_177
*1265 FILLER_0_29_199
*1266 FILLER_0_29_211
*1267 FILLER_0_29_220
*1268 FILLER_0_29_241
*1269 FILLER_0_29_253
*1270 FILLER_0_29_279
*1271 FILLER_0_29_281
*1272 FILLER_0_29_3
*1273 FILLER_0_29_324
*1274 FILLER_0_29_337
*1275 FILLER_0_29_349
*1276 FILLER_0_29_37
*1277 FILLER_0_29_73
*1278 FILLER_0_29_85
*1279 FILLER_0_2_109
*1280 FILLER_0_2_121
*1281 FILLER_0_2_133
*1282 FILLER_0_2_139
*1283 FILLER_0_2_141
*1284 FILLER_0_2_15
*1285 FILLER_0_2_153
*1286 FILLER_0_2_165
*1287 FILLER_0_2_177
*1288 FILLER_0_2_189
*1289 FILLER_0_2_195
*1290 FILLER_0_2_197
*1291 FILLER_0_2_209
*1292 FILLER_0_2_221
*1293 FILLER_0_2_233
*1294 FILLER_0_2_245
*1295 FILLER_0_2_251
*1296 FILLER_0_2_253
*1297 FILLER_0_2_265
*1298 FILLER_0_2_27
*1299 FILLER_0_2_277
*1300 FILLER_0_2_289
*1301 FILLER_0_2_29
*1302 FILLER_0_2_3
*1303 FILLER_0_2_301
*1304 FILLER_0_2_307
*1305 FILLER_0_2_309
*1306 FILLER_0_2_321
*1307 FILLER_0_2_333
*1308 FILLER_0_2_345
*1309 FILLER_0_2_41
*1310 FILLER_0_2_53
*1311 FILLER_0_2_65
*1312 FILLER_0_2_77
*1313 FILLER_0_2_83
*1314 FILLER_0_2_85
*1315 FILLER_0_2_97
*1316 FILLER_0_30_116
*1317 FILLER_0_30_128
*1318 FILLER_0_30_136
*1319 FILLER_0_30_15
*1320 FILLER_0_30_157
*1321 FILLER_0_30_169
*1322 FILLER_0_30_191
*1323 FILLER_0_30_195
*1324 FILLER_0_30_203
*1325 FILLER_0_30_215
*1326 FILLER_0_30_239
*1327 FILLER_0_30_25
*1328 FILLER_0_30_251
*1329 FILLER_0_30_288
*1330 FILLER_0_30_29
*1331 FILLER_0_30_3
*1332 FILLER_0_30_309
*1333 FILLER_0_30_321
*1334 FILLER_0_30_33
*1335 FILLER_0_30_345
*1336 FILLER_0_30_45
*1337 FILLER_0_30_63
*1338 FILLER_0_30_75
*1339 FILLER_0_31_123
*1340 FILLER_0_31_135
*1341 FILLER_0_31_147
*1342 FILLER_0_31_15
*1343 FILLER_0_31_164
*1344 FILLER_0_31_169
*1345 FILLER_0_31_174
*1346 FILLER_0_31_202
*1347 FILLER_0_31_214
*1348 FILLER_0_31_244
*1349 FILLER_0_31_252
*1350 FILLER_0_31_274
*1351 FILLER_0_31_281
*1352 FILLER_0_31_293
*1353 FILLER_0_31_3
*1354 FILLER_0_31_349
*1355 FILLER_0_31_36
*1356 FILLER_0_31_51
*1357 FILLER_0_31_55
*1358 FILLER_0_31_57
*1359 FILLER_0_31_69
*1360 FILLER_0_32_100
*1361 FILLER_0_32_136
*1362 FILLER_0_32_141
*1363 FILLER_0_32_149
*1364 FILLER_0_32_166
*1365 FILLER_0_32_190
*1366 FILLER_0_32_197
*1367 FILLER_0_32_217
*1368 FILLER_0_32_236
*1369 FILLER_0_32_248
*1370 FILLER_0_32_253
*1371 FILLER_0_32_262
*1372 FILLER_0_32_274
*1373 FILLER_0_32_286
*1374 FILLER_0_32_293
*1375 FILLER_0_32_3
*1376 FILLER_0_32_305
*1377 FILLER_0_32_345
*1378 FILLER_0_32_38
*1379 FILLER_0_32_57
*1380 FILLER_0_32_69
*1381 FILLER_0_32_81
*1382 FILLER_0_33_11
*1383 FILLER_0_33_117
*1384 FILLER_0_33_129
*1385 FILLER_0_33_141
*1386 FILLER_0_33_149
*1387 FILLER_0_33_191
*1388 FILLER_0_33_222
*1389 FILLER_0_33_243
*1390 FILLER_0_33_255
*1391 FILLER_0_33_259
*1392 FILLER_0_33_276
*1393 FILLER_0_33_281
*1394 FILLER_0_33_298
*1395 FILLER_0_33_3
*1396 FILLER_0_33_310
*1397 FILLER_0_33_318
*1398 FILLER_0_33_337
*1399 FILLER_0_33_349
*1400 FILLER_0_33_73
*1401 FILLER_0_33_85
*1402 FILLER_0_33_92
*1403 FILLER_0_34_112
*1404 FILLER_0_34_124
*1405 FILLER_0_34_136
*1406 FILLER_0_34_15
*1407 FILLER_0_34_166
*1408 FILLER_0_34_179
*1409 FILLER_0_34_191
*1410 FILLER_0_34_195
*1411 FILLER_0_34_245
*1412 FILLER_0_34_251
*1413 FILLER_0_34_253
*1414 FILLER_0_34_27
*1415 FILLER_0_34_276
*1416 FILLER_0_34_29
*1417 FILLER_0_34_3
*1418 FILLER_0_34_307
*1419 FILLER_0_34_309
*1420 FILLER_0_34_321
*1421 FILLER_0_34_338
*1422 FILLER_0_34_350
*1423 FILLER_0_34_38
*1424 FILLER_0_34_54
*1425 FILLER_0_34_61
*1426 FILLER_0_34_73
*1427 FILLER_0_34_82
*1428 FILLER_0_34_85
*1429 FILLER_0_34_96
*1430 FILLER_0_35_120
*1431 FILLER_0_35_124
*1432 FILLER_0_35_128
*1433 FILLER_0_35_140
*1434 FILLER_0_35_169
*1435 FILLER_0_35_187
*1436 FILLER_0_35_192
*1437 FILLER_0_35_222
*1438 FILLER_0_35_225
*1439 FILLER_0_35_246
*1440 FILLER_0_35_258
*1441 FILLER_0_35_262
*1442 FILLER_0_35_269
*1443 FILLER_0_35_277
*1444 FILLER_0_35_3
*1445 FILLER_0_35_302
*1446 FILLER_0_35_31
*1447 FILLER_0_35_310
*1448 FILLER_0_35_334
*1449 FILLER_0_35_346
*1450 FILLER_0_35_350
*1451 FILLER_0_35_43
*1452 FILLER_0_35_55
*1453 FILLER_0_35_57
*1454 FILLER_0_35_72
*1455 FILLER_0_36_11
*1456 FILLER_0_36_117
*1457 FILLER_0_36_135
*1458 FILLER_0_36_139
*1459 FILLER_0_36_157
*1460 FILLER_0_36_161
*1461 FILLER_0_36_178
*1462 FILLER_0_36_197
*1463 FILLER_0_36_209
*1464 FILLER_0_36_241
*1465 FILLER_0_36_249
*1466 FILLER_0_36_253
*1467 FILLER_0_36_272
*1468 FILLER_0_36_280
*1469 FILLER_0_36_286
*1470 FILLER_0_36_3
*1471 FILLER_0_36_325
*1472 FILLER_0_36_343
*1473 FILLER_0_36_45
*1474 FILLER_0_36_69
*1475 FILLER_0_36_81
*1476 FILLER_0_36_85
*1477 FILLER_0_36_89
*1478 FILLER_0_37_111
*1479 FILLER_0_37_113
*1480 FILLER_0_37_118
*1481 FILLER_0_37_126
*1482 FILLER_0_37_143
*1483 FILLER_0_37_154
*1484 FILLER_0_37_158
*1485 FILLER_0_37_163
*1486 FILLER_0_37_167
*1487 FILLER_0_37_169
*1488 FILLER_0_37_178
*1489 FILLER_0_37_205
*1490 FILLER_0_37_222
*1491 FILLER_0_37_244
*1492 FILLER_0_37_252
*1493 FILLER_0_37_279
*1494 FILLER_0_37_297
*1495 FILLER_0_37_3
*1496 FILLER_0_37_335
*1497 FILLER_0_37_340
*1498 FILLER_0_37_348
*1499 FILLER_0_37_38
*1500 FILLER_0_37_81
*1501 FILLER_0_37_89
*1502 FILLER_0_37_9
*1503 FILLER_0_37_93
*1504 FILLER_0_38_111
*1505 FILLER_0_38_113
*1506 FILLER_0_38_118
*1507 FILLER_0_38_122
*1508 FILLER_0_38_126
*1509 FILLER_0_38_130
*1510 FILLER_0_38_134
*1511 FILLER_0_38_14
*1512 FILLER_0_38_141
*1513 FILLER_0_38_148
*1514 FILLER_0_38_160
*1515 FILLER_0_38_169
*1516 FILLER_0_38_18
*1517 FILLER_0_38_185
*1518 FILLER_0_38_193
*1519 FILLER_0_38_197
*1520 FILLER_0_38_209
*1521 FILLER_0_38_217
*1522 FILLER_0_38_241
*1523 FILLER_0_38_249
*1524 FILLER_0_38_253
*1525 FILLER_0_38_259
*1526 FILLER_0_38_276
*1527 FILLER_0_38_281
*1528 FILLER_0_38_293
*1529 FILLER_0_38_3
*1530 FILLER_0_38_305
*1531 FILLER_0_38_32
*1532 FILLER_0_38_325
*1533 FILLER_0_38_333
*1534 FILLER_0_38_337
*1535 FILLER_0_38_349
*1536 FILLER_0_38_38
*1537 FILLER_0_38_42
*1538 FILLER_0_38_46
*1539 FILLER_0_38_50
*1540 FILLER_0_38_54
*1541 FILLER_0_38_57
*1542 FILLER_0_38_62
*1543 FILLER_0_38_66
*1544 FILLER_0_38_70
*1545 FILLER_0_38_74
*1546 FILLER_0_38_78
*1547 FILLER_0_38_88
*1548 FILLER_0_38_94
*1549 FILLER_0_3_105
*1550 FILLER_0_3_111
*1551 FILLER_0_3_113
*1552 FILLER_0_3_125
*1553 FILLER_0_3_137
*1554 FILLER_0_3_149
*1555 FILLER_0_3_15
*1556 FILLER_0_3_161
*1557 FILLER_0_3_167
*1558 FILLER_0_3_169
*1559 FILLER_0_3_181
*1560 FILLER_0_3_193
*1561 FILLER_0_3_205
*1562 FILLER_0_3_217
*1563 FILLER_0_3_223
*1564 FILLER_0_3_225
*1565 FILLER_0_3_237
*1566 FILLER_0_3_249
*1567 FILLER_0_3_261
*1568 FILLER_0_3_27
*1569 FILLER_0_3_273
*1570 FILLER_0_3_279
*1571 FILLER_0_3_281
*1572 FILLER_0_3_293
*1573 FILLER_0_3_3
*1574 FILLER_0_3_305
*1575 FILLER_0_3_317
*1576 FILLER_0_3_329
*1577 FILLER_0_3_335
*1578 FILLER_0_3_337