*SPEF "ieee 1481-1999"
*DESIGN "tt_um_4_LUT_Baungarten"
*DATE "11:11:11 Fri 11 11, 1111"
*VENDOR "OpenRCX"
*PROGRAM "Parallel Extraction"
*VERSION "1.0"
*DESIGN_FLOW "NAME_SCOPE LOCAL" "PIN_CAP NONE"
*DIVIDER /
*DELIMITER :
*BUS_DELIMITER []
*T_UNIT 1 NS
*C_UNIT 1 PF
*R_UNIT 1 OHM
*L_UNIT 1 HENRY

*NAME_MAP
*3 clk
*4 ena
*5 rst_n
*6 ui_in[0]
*7 ui_in[1]
*8 ui_in[2]
*9 ui_in[3]
*10 ui_in[4]
*11 ui_in[5]
*12 ui_in[6]
*13 ui_in[7]
*14 uio_in[0]
*15 uio_in[1]
*16 uio_in[2]
*17 uio_in[3]
*18 uio_in[4]
*19 uio_in[5]
*20 uio_in[6]
*21 uio_in[7]
*22 net32
*23 net33
*24 net34
*25 net35
*26 net36
*27 net37
*28 net38
*29 net39
*30 net40
*31 net41
*32 net42
*33 net43
*34 net44
*35 net45
*36 net46
*37 net47
*38 uo_out[0]
*39 uo_out[1]
*40 uo_out[2]
*41 uo_out[3]
*42 uo_out[4]
*43 uo_out[5]
*44 uo_out[6]
*45 uo_out[7]
*46 LUT_1\.i_Data
*47 LUT_1\.i_addr_load_data\[0\]
*48 LUT_1\.i_addr_load_data\[1\]
*49 LUT_1\.i_addr_load_data\[2\]
*50 LUT_1\.i_addr_load_data\[3\]
*51 LUT_1\.o_Data
*52 LUT_1\.r_data\[0\]
*53 LUT_1\.r_data\[10\]
*54 LUT_1\.r_data\[11\]
*55 LUT_1\.r_data\[12\]
*56 LUT_1\.r_data\[13\]
*57 LUT_1\.r_data\[14\]
*58 LUT_1\.r_data\[15\]
*59 LUT_1\.r_data\[1\]
*60 LUT_1\.r_data\[2\]
*61 LUT_1\.r_data\[3\]
*62 LUT_1\.r_data\[4\]
*63 LUT_1\.r_data\[5\]
*64 LUT_1\.r_data\[6\]
*65 LUT_1\.r_data\[7\]
*66 LUT_1\.r_data\[8\]
*67 LUT_1\.r_data\[9\]
*68 LUT_2\.i_Data
*69 LUT_2\.i_addr_load_data\[0\]
*70 LUT_2\.i_addr_load_data\[1\]
*71 LUT_2\.i_addr_load_data\[2\]
*72 LUT_2\.i_addr_load_data\[3\]
*73 LUT_2\.o_Data
*74 LUT_2\.r_data\[0\]
*75 LUT_2\.r_data\[10\]
*76 LUT_2\.r_data\[11\]
*77 LUT_2\.r_data\[12\]
*78 LUT_2\.r_data\[13\]
*79 LUT_2\.r_data\[14\]
*80 LUT_2\.r_data\[15\]
*81 LUT_2\.r_data\[1\]
*82 LUT_2\.r_data\[2\]
*83 LUT_2\.r_data\[3\]
*84 LUT_2\.r_data\[4\]
*85 LUT_2\.r_data\[5\]
*86 LUT_2\.r_data\[6\]
*87 LUT_2\.r_data\[7\]
*88 LUT_2\.r_data\[8\]
*89 LUT_2\.r_data\[9\]
*90 LUT_3\.i_Data
*91 LUT_3\.i_addr_load_data\[0\]
*92 LUT_3\.i_addr_load_data\[1\]
*93 LUT_3\.i_addr_load_data\[2\]
*94 LUT_3\.i_addr_load_data\[3\]
*95 LUT_3\.o_Data
*96 LUT_3\.r_data\[0\]
*97 LUT_3\.r_data\[10\]
*98 LUT_3\.r_data\[11\]
*99 LUT_3\.r_data\[12\]
*100 LUT_3\.r_data\[13\]
*101 LUT_3\.r_data\[14\]
*102 LUT_3\.r_data\[15\]
*103 LUT_3\.r_data\[1\]
*104 LUT_3\.r_data\[2\]
*105 LUT_3\.r_data\[3\]
*106 LUT_3\.r_data\[4\]
*107 LUT_3\.r_data\[5\]
*108 LUT_3\.r_data\[6\]
*109 LUT_3\.r_data\[7\]
*110 LUT_3\.r_data\[8\]
*111 LUT_3\.r_data\[9\]
*112 LUT_4\.i_Data
*113 LUT_4\.i_addr_load_data\[0\]
*114 LUT_4\.i_addr_load_data\[1\]
*115 LUT_4\.i_addr_load_data\[2\]
*116 LUT_4\.i_addr_load_data\[3\]
*117 LUT_4\.o_Data
*118 LUT_4\.r_data\[0\]
*119 LUT_4\.r_data\[10\]
*120 LUT_4\.r_data\[11\]
*121 LUT_4\.r_data\[12\]
*122 LUT_4\.r_data\[13\]
*123 LUT_4\.r_data\[14\]
*124 LUT_4\.r_data\[15\]
*125 LUT_4\.r_data\[1\]
*126 LUT_4\.r_data\[2\]
*127 LUT_4\.r_data\[3\]
*128 LUT_4\.r_data\[4\]
*129 LUT_4\.r_data\[5\]
*130 LUT_4\.r_data\[6\]
*131 LUT_4\.r_data\[7\]
*132 LUT_4\.r_data\[8\]
*133 LUT_4\.r_data\[9\]
*134 LUT_5\.i_Data
*135 LUT_5\.i_addr_load_data\[0\]
*136 LUT_5\.i_addr_load_data\[1\]
*137 LUT_5\.i_addr_load_data\[2\]
*138 LUT_5\.i_addr_load_data\[3\]
*139 LUT_5\.o_Data
*140 LUT_5\.r_data\[0\]
*141 LUT_5\.r_data\[10\]
*142 LUT_5\.r_data\[11\]
*143 LUT_5\.r_data\[12\]
*144 LUT_5\.r_data\[13\]
*145 LUT_5\.r_data\[14\]
*146 LUT_5\.r_data\[15\]
*147 LUT_5\.r_data\[1\]
*148 LUT_5\.r_data\[2\]
*149 LUT_5\.r_data\[3\]
*150 LUT_5\.r_data\[4\]
*151 LUT_5\.r_data\[5\]
*152 LUT_5\.r_data\[6\]
*153 LUT_5\.r_data\[7\]
*154 LUT_5\.r_data\[8\]
*155 LUT_5\.r_data\[9\]
*156 LUT_6\.i_Data
*157 LUT_6\.i_addr_load_data\[0\]
*158 LUT_6\.i_addr_load_data\[1\]
*159 LUT_6\.i_addr_load_data\[2\]
*160 LUT_6\.i_addr_load_data\[3\]
*161 LUT_6\.o_Data
*162 LUT_6\.r_data\[0\]
*163 LUT_6\.r_data\[10\]
*164 LUT_6\.r_data\[11\]
*165 LUT_6\.r_data\[12\]
*166 LUT_6\.r_data\[13\]
*167 LUT_6\.r_data\[14\]
*168 LUT_6\.r_data\[15\]
*169 LUT_6\.r_data\[1\]
*170 LUT_6\.r_data\[2\]
*171 LUT_6\.r_data\[3\]
*172 LUT_6\.r_data\[4\]
*173 LUT_6\.r_data\[5\]
*174 LUT_6\.r_data\[6\]
*175 LUT_6\.r_data\[7\]
*176 LUT_6\.r_data\[8\]
*177 LUT_6\.r_data\[9\]
*178 LUT_7\.i_Data
*179 LUT_7\.i_addr_load_data\[0\]
*180 LUT_7\.i_addr_load_data\[1\]
*181 LUT_7\.i_addr_load_data\[2\]
*182 LUT_7\.i_addr_load_data\[3\]
*183 LUT_7\.o_Data
*184 LUT_7\.r_data\[0\]
*185 LUT_7\.r_data\[10\]
*186 LUT_7\.r_data\[11\]
*187 LUT_7\.r_data\[12\]
*188 LUT_7\.r_data\[13\]
*189 LUT_7\.r_data\[14\]
*190 LUT_7\.r_data\[15\]
*191 LUT_7\.r_data\[1\]
*192 LUT_7\.r_data\[2\]
*193 LUT_7\.r_data\[3\]
*194 LUT_7\.r_data\[4\]
*195 LUT_7\.r_data\[5\]
*196 LUT_7\.r_data\[6\]
*197 LUT_7\.r_data\[7\]
*198 LUT_7\.r_data\[8\]
*199 LUT_7\.r_data\[9\]
*200 LUT_8\.i_Data
*201 LUT_8\.i_addr_load_data\[0\]
*202 LUT_8\.i_addr_load_data\[1\]
*203 LUT_8\.i_addr_load_data\[2\]
*204 LUT_8\.i_addr_load_data\[3\]
*205 LUT_8\.o_Data
*206 LUT_8\.r_data\[0\]
*207 LUT_8\.r_data\[10\]
*208 LUT_8\.r_data\[11\]
*209 LUT_8\.r_data\[12\]
*210 LUT_8\.r_data\[13\]
*211 LUT_8\.r_data\[14\]
*212 LUT_8\.r_data\[15\]
*213 LUT_8\.r_data\[1\]
*214 LUT_8\.r_data\[2\]
*215 LUT_8\.r_data\[3\]
*216 LUT_8\.r_data\[4\]
*217 LUT_8\.r_data\[5\]
*218 LUT_8\.r_data\[6\]
*219 LUT_8\.r_data\[7\]
*220 LUT_8\.r_data\[8\]
*221 LUT_8\.r_data\[9\]
*222 _0000_
*223 _0001_
*224 _0002_
*225 _0003_
*226 _0004_
*227 _0005_
*228 _0006_
*229 _0007_
*230 _0008_
*231 _0009_
*232 _0010_
*233 _0011_
*234 _0012_
*235 _0013_
*236 _0014_
*237 _0015_
*238 _0016_
*239 _0017_
*240 _0018_
*241 _0019_
*242 _0020_
*243 _0021_
*244 _0022_
*245 _0023_
*246 _0024_
*247 _0025_
*248 _0026_
*249 _0027_
*250 _0028_
*251 _0029_
*252 _0030_
*253 _0031_
*254 _0032_
*255 _0033_
*256 _0034_
*257 _0035_
*258 _0036_
*259 _0037_
*260 _0038_
*261 _0039_
*262 _0040_
*263 _0041_
*264 _0042_
*265 _0043_
*266 _0044_
*267 _0045_
*268 _0046_
*269 _0047_
*270 _0048_
*271 _0049_
*272 _0050_
*273 _0051_
*274 _0052_
*275 _0053_
*276 _0054_
*277 _0055_
*278 _0056_
*279 _0057_
*280 _0058_
*281 _0059_
*282 _0060_
*283 _0061_
*284 _0062_
*285 _0063_
*286 _0064_
*287 _0065_
*288 _0066_
*289 _0067_
*290 _0068_
*291 _0069_
*292 _0070_
*293 _0071_
*294 _0072_
*295 _0073_
*296 _0074_
*297 _0075_
*298 _0076_
*299 _0077_
*300 _0078_
*301 _0079_
*302 _0080_
*303 _0081_
*304 _0082_
*305 _0083_
*306 _0084_
*307 _0085_
*308 _0086_
*309 _0087_
*310 _0088_
*311 _0089_
*312 _0090_
*313 _0091_
*314 _0092_
*315 _0093_
*316 _0094_
*317 _0095_
*318 _0096_
*319 _0097_
*320 _0098_
*321 _0099_
*322 _0100_
*323 _0101_
*324 _0102_
*325 _0103_
*326 _0104_
*327 _0105_
*328 _0106_
*329 _0107_
*330 _0108_
*331 _0109_
*332 _0110_
*333 _0111_
*334 _0112_
*335 _0113_
*336 _0114_
*337 _0115_
*338 _0116_
*339 _0117_
*340 _0118_
*341 _0119_
*342 _0120_
*343 _0121_
*344 _0122_
*345 _0123_
*346 _0124_
*347 _0125_
*348 _0126_
*349 _0127_
*350 _0128_
*351 _0129_
*352 _0130_
*353 _0131_
*354 _0132_
*355 _0133_
*356 _0134_
*357 _0135_
*358 _0136_
*359 _0137_
*360 _0138_
*361 _0139_
*362 _0140_
*363 _0141_
*364 _0142_
*365 _0143_
*366 _0144_
*367 _0145_
*368 _0146_
*369 _0147_
*370 _0148_
*371 _0149_
*372 _0150_
*373 _0151_
*374 _0152_
*375 _0153_
*376 _0154_
*377 _0155_
*378 _0156_
*379 _0157_
*380 _0158_
*381 _0159_
*382 _0160_
*383 _0161_
*384 _0162_
*385 _0163_
*386 _0164_
*387 _0165_
*388 _0166_
*389 _0167_
*390 _0168_
*391 _0169_
*392 _0170_
*393 _0171_
*394 _0172_
*395 _0173_
*396 _0174_
*397 _0175_
*398 _0176_
*399 _0177_
*400 _0178_
*401 _0179_
*402 _0180_
*403 _0181_
*404 _0182_
*405 _0183_
*406 _0184_
*407 _0185_
*408 _0186_
*409 _0187_
*410 _0188_
*411 _0189_
*412 _0190_
*413 _0191_
*414 _0192_
*415 _0193_
*416 _0194_
*417 _0195_
*418 _0196_
*419 _0197_
*420 _0198_
*421 _0199_
*422 _0200_
*423 _0201_
*424 _0202_
*425 _0203_
*426 _0204_
*427 _0205_
*428 _0206_
*429 _0207_
*430 _0208_
*431 _0209_
*432 _0210_
*433 _0211_
*434 _0212_
*435 _0213_
*436 _0214_
*437 _0215_
*438 _0216_
*439 _0217_
*440 _0218_
*441 _0219_
*442 _0220_
*443 _0221_
*444 _0222_
*445 _0223_
*446 _0224_
*447 _0225_
*448 _0226_
*449 _0227_
*450 _0228_
*451 _0229_
*452 _0230_
*453 _0231_
*454 _0232_
*455 _0233_
*456 _0234_
*457 _0235_
*458 _0236_
*459 _0237_
*460 _0238_
*461 _0239_
*462 _0240_
*463 _0241_
*464 _0242_
*465 _0243_
*466 _0244_
*467 _0245_
*468 _0246_
*469 _0247_
*470 _0248_
*471 _0249_
*472 _0250_
*473 _0251_
*474 _0252_
*475 _0253_
*476 _0254_
*477 _0255_
*478 _0256_
*479 _0257_
*480 _0258_
*481 _0259_
*482 _0260_
*483 _0261_
*484 _0262_
*485 _0263_
*486 _0264_
*487 _0265_
*488 _0266_
*489 _0267_
*490 _0268_
*491 _0269_
*492 _0270_
*493 _0271_
*494 _0272_
*495 _0273_
*496 _0274_
*497 _0275_
*498 _0276_
*499 _0277_
*500 _0278_
*501 _0279_
*502 _0280_
*503 _0281_
*504 _0282_
*505 _0283_
*506 _0284_
*507 _0285_
*508 _0286_
*509 _0287_
*510 _0288_
*511 _0289_
*512 _0290_
*513 _0291_
*514 _0292_
*515 _0293_
*516 _0294_
*517 _0295_
*518 _0296_
*519 _0297_
*520 _0298_
*521 _0299_
*522 _0300_
*523 _0301_
*524 _0302_
*525 _0303_
*526 _0304_
*527 _0305_
*528 _0306_
*529 _0307_
*530 _0308_
*531 _0309_
*532 _0310_
*533 _0311_
*534 _0312_
*535 _0313_
*536 _0314_
*537 _0315_
*538 _0316_
*539 _0317_
*540 _0318_
*541 _0319_
*542 _0320_
*543 _0321_
*544 _0322_
*545 _0323_
*546 _0324_
*547 _0325_
*548 _0326_
*549 _0327_
*550 _0328_
*551 _0329_
*552 _0330_
*553 _0331_
*554 _0332_
*555 _0333_
*556 _0334_
*557 _0335_
*558 _0336_
*559 _0337_
*560 _0338_
*561 _0339_
*562 _0340_
*563 _0341_
*564 _0342_
*565 _0343_
*566 _0344_
*567 _0345_
*568 _0346_
*569 _0347_
*570 _0348_
*571 _0349_
*572 _0350_
*573 _0351_
*574 _0352_
*575 _0353_
*576 _0354_
*577 _0355_
*578 _0356_
*579 _0357_
*580 _0358_
*581 _0359_
*582 _0360_
*583 _0361_
*584 _0362_
*585 _0363_
*586 _0364_
*587 _0365_
*588 _0366_
*589 _0367_
*590 _0368_
*591 _0369_
*592 _0370_
*593 _0371_
*594 _0372_
*595 _0373_
*596 _0374_
*597 _0375_
*598 _0376_
*599 _0377_
*600 _0378_
*601 _0379_
*602 _0380_
*603 _0381_
*604 _0382_
*605 _0383_
*606 _0384_
*607 _0385_
*608 _0386_
*609 _0387_
*610 _0388_
*611 _0389_
*612 _0390_
*613 _0391_
*614 _0392_
*615 _0393_
*616 _0394_
*617 _0395_
*618 _0396_
*619 _0397_
*620 _0398_
*621 _0399_
*622 _0400_
*623 net1
*624 net10
*625 net11
*626 net12
*627 net13
*628 net14
*629 net15
*630 net16
*631 net17
*632 net18
*633 net19
*634 net2
*635 net20
*636 net21
*637 net22
*638 net23
*639 net24
*640 net25
*641 net26
*642 net27
*643 net28
*644 net29
*645 net3
*646 net30
*647 net31
*648 net4
*649 net5
*650 net6
*651 net7
*652 net8
*653 net9
*654 ANTENNA_1
*655 ANTENNA_2
*656 FILLER_0_0_109
*657 FILLER_0_0_113
*658 FILLER_0_0_125
*659 FILLER_0_0_137
*660 FILLER_0_0_141
*661 FILLER_0_0_15
*662 FILLER_0_0_153
*663 FILLER_0_0_165
*664 FILLER_0_0_169
*665 FILLER_0_0_181
*666 FILLER_0_0_193
*667 FILLER_0_0_197
*668 FILLER_0_0_209
*669 FILLER_0_0_221
*670 FILLER_0_0_225
*671 FILLER_0_0_237
*672 FILLER_0_0_249
*673 FILLER_0_0_253
*674 FILLER_0_0_265
*675 FILLER_0_0_27
*676 FILLER_0_0_277
*677 FILLER_0_0_281
*678 FILLER_0_0_29
*679 FILLER_0_0_293
*680 FILLER_0_0_3
*681 FILLER_0_0_305
*682 FILLER_0_0_309
*683 FILLER_0_0_321
*684 FILLER_0_0_333
*685 FILLER_0_0_337
*686 FILLER_0_0_349
*687 FILLER_0_0_41
*688 FILLER_0_0_53
*689 FILLER_0_0_57
*690 FILLER_0_0_69
*691 FILLER_0_0_81
*692 FILLER_0_0_85
*693 FILLER_0_0_97
*694 FILLER_0_10_109
*695 FILLER_0_10_121
*696 FILLER_0_10_133
*697 FILLER_0_10_139
*698 FILLER_0_10_141
*699 FILLER_0_10_15
*700 FILLER_0_10_153
*701 FILLER_0_10_165
*702 FILLER_0_10_177
*703 FILLER_0_10_189
*704 FILLER_0_10_195
*705 FILLER_0_10_197
*706 FILLER_0_10_209
*707 FILLER_0_10_221
*708 FILLER_0_10_233
*709 FILLER_0_10_245
*710 FILLER_0_10_251
*711 FILLER_0_10_253
*712 FILLER_0_10_265
*713 FILLER_0_10_27
*714 FILLER_0_10_277
*715 FILLER_0_10_289
*716 FILLER_0_10_29
*717 FILLER_0_10_3
*718 FILLER_0_10_301
*719 FILLER_0_10_307
*720 FILLER_0_10_309
*721 FILLER_0_10_321
*722 FILLER_0_10_333
*723 FILLER_0_10_345
*724 FILLER_0_10_41
*725 FILLER_0_10_53
*726 FILLER_0_10_65
*727 FILLER_0_10_77
*728 FILLER_0_10_83
*729 FILLER_0_10_85
*730 FILLER_0_10_97
*731 FILLER_0_11_105
*732 FILLER_0_11_111
*733 FILLER_0_11_113
*734 FILLER_0_11_125
*735 FILLER_0_11_137
*736 FILLER_0_11_149
*737 FILLER_0_11_15
*738 FILLER_0_11_161
*739 FILLER_0_11_167
*740 FILLER_0_11_169
*741 FILLER_0_11_181
*742 FILLER_0_11_193
*743 FILLER_0_11_205
*744 FILLER_0_11_217
*745 FILLER_0_11_223
*746 FILLER_0_11_225
*747 FILLER_0_11_237
*748 FILLER_0_11_249
*749 FILLER_0_11_261
*750 FILLER_0_11_27
*751 FILLER_0_11_273
*752 FILLER_0_11_279
*753 FILLER_0_11_281
*754 FILLER_0_11_293
*755 FILLER_0_11_3
*756 FILLER_0_11_305
*757 FILLER_0_11_317
*758 FILLER_0_11_329
*759 FILLER_0_11_335
*760 FILLER_0_11_337
*761 FILLER_0_11_349
*762 FILLER_0_11_39
*763 FILLER_0_11_51
*764 FILLER_0_11_55
*765 FILLER_0_11_57
*766 FILLER_0_11_69
*767 FILLER_0_11_81
*768 FILLER_0_11_93
*769 FILLER_0_12_109
*770 FILLER_0_12_121
*771 FILLER_0_12_133
*772 FILLER_0_12_139
*773 FILLER_0_12_141
*774 FILLER_0_12_15
*775 FILLER_0_12_153
*776 FILLER_0_12_165
*777 FILLER_0_12_177
*778 FILLER_0_12_189
*779 FILLER_0_12_195
*780 FILLER_0_12_197
*781 FILLER_0_12_209
*782 FILLER_0_12_221
*783 FILLER_0_12_233
*784 FILLER_0_12_245
*785 FILLER_0_12_251
*786 FILLER_0_12_253
*787 FILLER_0_12_265
*788 FILLER_0_12_27
*789 FILLER_0_12_277
*790 FILLER_0_12_289
*791 FILLER_0_12_29
*792 FILLER_0_12_3
*793 FILLER_0_12_301
*794 FILLER_0_12_307
*795 FILLER_0_12_309
*796 FILLER_0_12_321
*797 FILLER_0_12_333
*798 FILLER_0_12_345
*799 FILLER_0_12_41
*800 FILLER_0_12_53
*801 FILLER_0_12_65
*802 FILLER_0_12_77
*803 FILLER_0_12_83
*804 FILLER_0_12_85
*805 FILLER_0_12_97
*806 FILLER_0_13_105
*807 FILLER_0_13_111
*808 FILLER_0_13_113
*809 FILLER_0_13_125
*810 FILLER_0_13_137
*811 FILLER_0_13_149
*812 FILLER_0_13_15
*813 FILLER_0_13_161
*814 FILLER_0_13_167
*815 FILLER_0_13_169
*816 FILLER_0_13_181
*817 FILLER_0_13_193
*818 FILLER_0_13_205
*819 FILLER_0_13_217
*820 FILLER_0_13_223
*821 FILLER_0_13_225
*822 FILLER_0_13_237
*823 FILLER_0_13_246
*824 FILLER_0_13_255
*825 FILLER_0_13_267
*826 FILLER_0_13_27
*827 FILLER_0_13_279
*828 FILLER_0_13_281
*829 FILLER_0_13_293
*830 FILLER_0_13_3
*831 FILLER_0_13_305
*832 FILLER_0_13_317
*833 FILLER_0_13_329
*834 FILLER_0_13_335
*835 FILLER_0_13_337
*836 FILLER_0_13_349
*837 FILLER_0_13_39
*838 FILLER_0_13_51
*839 FILLER_0_13_55
*840 FILLER_0_13_57
*841 FILLER_0_13_69
*842 FILLER_0_13_81
*843 FILLER_0_13_93
*844 FILLER_0_14_109
*845 FILLER_0_14_121
*846 FILLER_0_14_15
*847 FILLER_0_14_159
*848 FILLER_0_14_171
*849 FILLER_0_14_184
*850 FILLER_0_14_197
*851 FILLER_0_14_209
*852 FILLER_0_14_225
*853 FILLER_0_14_251
*854 FILLER_0_14_268
*855 FILLER_0_14_27
*856 FILLER_0_14_280
*857 FILLER_0_14_29
*858 FILLER_0_14_292
*859 FILLER_0_14_3
*860 FILLER_0_14_304
*861 FILLER_0_14_309
*862 FILLER_0_14_321
*863 FILLER_0_14_333
*864 FILLER_0_14_345
*865 FILLER_0_14_41
*866 FILLER_0_14_53
*867 FILLER_0_14_65
*868 FILLER_0_14_77
*869 FILLER_0_14_83
*870 FILLER_0_14_85
*871 FILLER_0_14_97
*872 FILLER_0_15_105
*873 FILLER_0_15_111
*874 FILLER_0_15_113
*875 FILLER_0_15_121
*876 FILLER_0_15_133
*877 FILLER_0_15_138
*878 FILLER_0_15_15
*879 FILLER_0_15_157
*880 FILLER_0_15_172
*881 FILLER_0_15_178
*882 FILLER_0_15_194
*883 FILLER_0_15_208
*884 FILLER_0_15_221
*885 FILLER_0_15_237
*886 FILLER_0_15_250
*887 FILLER_0_15_262
*888 FILLER_0_15_266
*889 FILLER_0_15_27
*890 FILLER_0_15_270
*891 FILLER_0_15_278
*892 FILLER_0_15_281
*893 FILLER_0_15_293
*894 FILLER_0_15_3
*895 FILLER_0_15_301
*896 FILLER_0_15_306
*897 FILLER_0_15_318
*898 FILLER_0_15_330
*899 FILLER_0_15_337
*900 FILLER_0_15_349
*901 FILLER_0_15_39
*902 FILLER_0_15_51
*903 FILLER_0_15_55
*904 FILLER_0_15_57
*905 FILLER_0_15_69
*906 FILLER_0_15_81
*907 FILLER_0_15_93
*908 FILLER_0_16_109
*909 FILLER_0_16_121
*910 FILLER_0_16_15
*911 FILLER_0_16_153
*912 FILLER_0_16_168
*913 FILLER_0_16_176
*914 FILLER_0_16_191
*915 FILLER_0_16_195
*916 FILLER_0_16_197
*917 FILLER_0_16_205
*918 FILLER_0_16_210
*919 FILLER_0_16_218
*920 FILLER_0_16_232
*921 FILLER_0_16_243
*922 FILLER_0_16_253
*923 FILLER_0_16_27
*924 FILLER_0_16_276
*925 FILLER_0_16_284
*926 FILLER_0_16_29
*927 FILLER_0_16_3
*928 FILLER_0_16_324
*929 FILLER_0_16_336
*930 FILLER_0_16_345
*931 FILLER_0_16_41
*932 FILLER_0_16_53
*933 FILLER_0_16_65
*934 FILLER_0_16_71
*935 FILLER_0_16_83
*936 FILLER_0_16_85
*937 FILLER_0_16_97
*938 FILLER_0_17_113
*939 FILLER_0_17_131
*940 FILLER_0_17_143
*941 FILLER_0_17_15
*942 FILLER_0_17_154
*943 FILLER_0_17_169
*944 FILLER_0_17_185
*945 FILLER_0_17_197
*946 FILLER_0_17_203
*947 FILLER_0_17_223
*948 FILLER_0_17_225
*949 FILLER_0_17_245
*950 FILLER_0_17_257
*951 FILLER_0_17_269
*952 FILLER_0_17_27
*953 FILLER_0_17_277
*954 FILLER_0_17_293
*955 FILLER_0_17_3
*956 FILLER_0_17_305
*957 FILLER_0_17_319
*958 FILLER_0_17_331
*959 FILLER_0_17_335
*960 FILLER_0_17_349
*961 FILLER_0_17_39
*962 FILLER_0_17_51
*963 FILLER_0_17_55
*964 FILLER_0_17_69
*965 FILLER_0_17_90
*966 FILLER_0_17_98
*967 FILLER_0_18_107
*968 FILLER_0_18_120
*969 FILLER_0_18_132
*970 FILLER_0_18_141
*971 FILLER_0_18_147
*972 FILLER_0_18_15
*973 FILLER_0_18_161
*974 FILLER_0_18_173
*975 FILLER_0_18_195
*976 FILLER_0_18_197
*977 FILLER_0_18_209
*978 FILLER_0_18_215
*979 FILLER_0_18_222
*980 FILLER_0_18_234
*981 FILLER_0_18_240
*982 FILLER_0_18_244
*983 FILLER_0_18_265
*984 FILLER_0_18_27
*985 FILLER_0_18_281
*986 FILLER_0_18_289
*987 FILLER_0_18_29
*988 FILLER_0_18_3
*989 FILLER_0_18_309
*990 FILLER_0_18_333
*991 FILLER_0_18_342
*992 FILLER_0_18_348
*993 FILLER_0_18_48
*994 FILLER_0_18_64
*995 FILLER_0_18_72
*996 FILLER_0_18_77
*997 FILLER_0_18_83
*998 FILLER_0_18_85
*999 FILLER_0_18_91
*1000 FILLER_0_19_101
*1001 FILLER_0_19_109
*1002 FILLER_0_19_113
*1003 FILLER_0_19_127
*1004 FILLER_0_19_148
*1005 FILLER_0_19_15
*1006 FILLER_0_19_156
*1007 FILLER_0_19_166
*1008 FILLER_0_19_175
*1009 FILLER_0_19_193
*1010 FILLER_0_19_205
*1011 FILLER_0_19_222
*1012 FILLER_0_19_225
*1013 FILLER_0_19_238
*1014 FILLER_0_19_250
*1015 FILLER_0_19_262
*1016 FILLER_0_19_27
*1017 FILLER_0_19_277
*1018 FILLER_0_19_281
*1019 FILLER_0_19_287
*1020 FILLER_0_19_295
*1021 FILLER_0_19_3
*1022 FILLER_0_19_31
*1023 FILLER_0_19_310
*1024 FILLER_0_19_319
*1025 FILLER_0_19_323
*1026 FILLER_0_19_331
*1027 FILLER_0_19_335
*1028 FILLER_0_19_349
*1029 FILLER_0_19_39
*1030 FILLER_0_19_47
*1031 FILLER_0_19_54
*1032 FILLER_0_19_64
*1033 FILLER_0_19_72
*1034 FILLER_0_19_79
*1035 FILLER_0_19_87
*1036 FILLER_0_19_93
*1037 FILLER_0_1_105
*1038 FILLER_0_1_111
*1039 FILLER_0_1_113
*1040 FILLER_0_1_125
*1041 FILLER_0_1_137
*1042 FILLER_0_1_149
*1043 FILLER_0_1_15
*1044 FILLER_0_1_161
*1045 FILLER_0_1_167
*1046 FILLER_0_1_169
*1047 FILLER_0_1_181
*1048 FILLER_0_1_193
*1049 FILLER_0_1_205
*1050 FILLER_0_1_217
*1051 FILLER_0_1_223
*1052 FILLER_0_1_225
*1053 FILLER_0_1_237
*1054 FILLER_0_1_249
*1055 FILLER_0_1_261
*1056 FILLER_0_1_27
*1057 FILLER_0_1_273
*1058 FILLER_0_1_279
*1059 FILLER_0_1_281
*1060 FILLER_0_1_293
*1061 FILLER_0_1_3
*1062 FILLER_0_1_305
*1063 FILLER_0_1_317
*1064 FILLER_0_1_329
*1065 FILLER_0_1_335
*1066 FILLER_0_1_337
*1067 FILLER_0_1_349
*1068 FILLER_0_1_39
*1069 FILLER_0_1_51
*1070 FILLER_0_1_55
*1071 FILLER_0_1_57
*1072 FILLER_0_1_69
*1073 FILLER_0_1_81
*1074 FILLER_0_1_93
*1075 FILLER_0_20_125
*1076 FILLER_0_20_148
*1077 FILLER_0_20_15
*1078 FILLER_0_20_156
*1079 FILLER_0_20_165
*1080 FILLER_0_20_177
*1081 FILLER_0_20_185
*1082 FILLER_0_20_195
*1083 FILLER_0_20_197
*1084 FILLER_0_20_209
*1085 FILLER_0_20_215
*1086 FILLER_0_20_219
*1087 FILLER_0_20_23
*1088 FILLER_0_20_237
*1089 FILLER_0_20_245
*1090 FILLER_0_20_251
*1091 FILLER_0_20_265
*1092 FILLER_0_20_272
*1093 FILLER_0_20_286
*1094 FILLER_0_20_29
*1095 FILLER_0_20_3
*1096 FILLER_0_20_304
*1097 FILLER_0_20_309
*1098 FILLER_0_20_313
*1099 FILLER_0_20_321
*1100 FILLER_0_20_334
*1101 FILLER_0_20_346
*1102 FILLER_0_20_350
*1103 FILLER_0_20_42
*1104 FILLER_0_20_50
*1105 FILLER_0_20_54
*1106 FILLER_0_20_66
*1107 FILLER_0_20_76
*1108 FILLER_0_20_82
*1109 FILLER_0_20_85
*1110 FILLER_0_21_104
*1111 FILLER_0_21_130
*1112 FILLER_0_21_142
*1113 FILLER_0_21_15
*1114 FILLER_0_21_150
*1115 FILLER_0_21_181
*1116 FILLER_0_21_193
*1117 FILLER_0_21_216
*1118 FILLER_0_21_225
*1119 FILLER_0_21_232
*1120 FILLER_0_21_250
*1121 FILLER_0_21_262
*1122 FILLER_0_21_27
*1123 FILLER_0_21_278
*1124 FILLER_0_21_281
*1125 FILLER_0_21_288
*1126 FILLER_0_21_292
*1127 FILLER_0_21_296
*1128 FILLER_0_21_3
*1129 FILLER_0_21_309
*1130 FILLER_0_21_331
*1131 FILLER_0_21_335
*1132 FILLER_0_21_337
*1133 FILLER_0_21_349
*1134 FILLER_0_21_44
*1135 FILLER_0_21_76
*1136 FILLER_0_21_88
*1137 FILLER_0_22_102
*1138 FILLER_0_22_106
*1139 FILLER_0_22_111
*1140 FILLER_0_22_119
*1141 FILLER_0_22_132
*1142 FILLER_0_22_15
*1143 FILLER_0_22_150
*1144 FILLER_0_22_162
*1145 FILLER_0_22_170
*1146 FILLER_0_22_197
*1147 FILLER_0_22_201
*1148 FILLER_0_22_207
*1149 FILLER_0_22_219
*1150 FILLER_0_22_237
*1151 FILLER_0_22_241
*1152 FILLER_0_22_249
*1153 FILLER_0_22_253
*1154 FILLER_0_22_261
*1155 FILLER_0_22_27
*1156 FILLER_0_22_278
*1157 FILLER_0_22_286
*1158 FILLER_0_22_29
*1159 FILLER_0_22_3
*1160 FILLER_0_22_300
*1161 FILLER_0_22_316
*1162 FILLER_0_22_331
*1163 FILLER_0_22_337
*1164 FILLER_0_22_350
*1165 FILLER_0_22_44
*1166 FILLER_0_22_58
*1167 FILLER_0_22_63
*1168 FILLER_0_22_67
*1169 FILLER_0_22_80
*1170 FILLER_0_22_88
*1171 FILLER_0_23_113
*1172 FILLER_0_23_128
*1173 FILLER_0_23_136
*1174 FILLER_0_23_15
*1175 FILLER_0_23_151
*1176 FILLER_0_23_165
*1177 FILLER_0_23_195
*1178 FILLER_0_23_201
*1179 FILLER_0_23_211
*1180 FILLER_0_23_216
*1181 FILLER_0_23_256
*1182 FILLER_0_23_262
*1183 FILLER_0_23_27
*1184 FILLER_0_23_270
*1185 FILLER_0_23_276
*1186 FILLER_0_23_3
*1187 FILLER_0_23_300
*1188 FILLER_0_23_308
*1189 FILLER_0_23_322
*1190 FILLER_0_23_334
*1191 FILLER_0_23_349
*1192 FILLER_0_23_54
*1193 FILLER_0_24_101
*1194 FILLER_0_24_113
*1195 FILLER_0_24_125
*1196 FILLER_0_24_148
*1197 FILLER_0_24_15
*1198 FILLER_0_24_152
*1199 FILLER_0_24_160
*1200 FILLER_0_24_172
*1201 FILLER_0_24_185
*1202 FILLER_0_24_193
*1203 FILLER_0_24_197
*1204 FILLER_0_24_235
*1205 FILLER_0_24_245
*1206 FILLER_0_24_251
*1207 FILLER_0_24_253
*1208 FILLER_0_24_261
*1209 FILLER_0_24_27
*1210 FILLER_0_24_275
*1211 FILLER_0_24_279
*1212 FILLER_0_24_284
*1213 FILLER_0_24_288
*1214 FILLER_0_24_29
*1215 FILLER_0_24_3
*1216 FILLER_0_24_301
*1217 FILLER_0_24_307
*1218 FILLER_0_24_309
*1219 FILLER_0_24_317
*1220 FILLER_0_24_341
*1221 FILLER_0_24_349
*1222 FILLER_0_24_44
*1223 FILLER_0_24_56
*1224 FILLER_0_24_64
*1225 FILLER_0_24_80
*1226 FILLER_0_24_85
*1227 FILLER_0_25_101
*1228 FILLER_0_25_109
*1229 FILLER_0_25_125
*1230 FILLER_0_25_15
*1231 FILLER_0_25_169
*1232 FILLER_0_25_182
*1233 FILLER_0_25_214
*1234 FILLER_0_25_222
*1235 FILLER_0_25_228
*1236 FILLER_0_25_241
*1237 FILLER_0_25_256
*1238 FILLER_0_25_27
*1239 FILLER_0_25_271
*1240 FILLER_0_25_279
*1241 FILLER_0_25_288
*1242 FILLER_0_25_3
*1243 FILLER_0_25_303
*1244 FILLER_0_25_315
*1245 FILLER_0_25_33
*1246 FILLER_0_25_330
*1247 FILLER_0_25_347
*1248 FILLER_0_25_46
*1249 FILLER_0_25_54
*1250 FILLER_0_25_57
*1251 FILLER_0_25_62
*1252 FILLER_0_25_66
*1253 FILLER_0_25_80
*1254 FILLER_0_25_88
*1255 FILLER_0_26_105
*1256 FILLER_0_26_127
*1257 FILLER_0_26_139
*1258 FILLER_0_26_141
*1259 FILLER_0_26_15
*1260 FILLER_0_26_153
*1261 FILLER_0_26_165
*1262 FILLER_0_26_182
*1263 FILLER_0_26_194
*1264 FILLER_0_26_221
*1265 FILLER_0_26_230
*1266 FILLER_0_26_235
*1267 FILLER_0_26_247
*1268 FILLER_0_26_251
*1269 FILLER_0_26_253
*1270 FILLER_0_26_265
*1271 FILLER_0_26_27
*1272 FILLER_0_26_281
*1273 FILLER_0_26_285
*1274 FILLER_0_26_298
*1275 FILLER_0_26_3
*1276 FILLER_0_26_312
*1277 FILLER_0_26_331
*1278 FILLER_0_26_348
*1279 FILLER_0_26_35
*1280 FILLER_0_26_47
*1281 FILLER_0_26_65
*1282 FILLER_0_26_70
*1283 FILLER_0_26_85
*1284 FILLER_0_26_97
*1285 FILLER_0_27_116
*1286 FILLER_0_27_124
*1287 FILLER_0_27_138
*1288 FILLER_0_27_15
*1289 FILLER_0_27_162
*1290 FILLER_0_27_185
*1291 FILLER_0_27_199
*1292 FILLER_0_27_211
*1293 FILLER_0_27_223
*1294 FILLER_0_27_241
*1295 FILLER_0_27_269
*1296 FILLER_0_27_275
*1297 FILLER_0_27_279
*1298 FILLER_0_27_281
*1299 FILLER_0_27_289
*1300 FILLER_0_27_3
*1301 FILLER_0_27_306
*1302 FILLER_0_27_312
*1303 FILLER_0_27_320
*1304 FILLER_0_27_328
*1305 FILLER_0_27_342
*1306 FILLER_0_27_348
*1307 FILLER_0_27_37
*1308 FILLER_0_27_49
*1309 FILLER_0_27_54
*1310 FILLER_0_27_64
*1311 FILLER_0_27_70
*1312 FILLER_0_27_77
*1313 FILLER_0_27_83
*1314 FILLER_0_27_89
*1315 FILLER_0_27_95
*1316 FILLER_0_28_101
*1317 FILLER_0_28_107
*1318 FILLER_0_28_119
*1319 FILLER_0_28_127
*1320 FILLER_0_28_15
*1321 FILLER_0_28_154
*1322 FILLER_0_28_165
*1323 FILLER_0_28_169
*1324 FILLER_0_28_178
*1325 FILLER_0_28_190
*1326 FILLER_0_28_21
*1327 FILLER_0_28_221
*1328 FILLER_0_28_227
*1329 FILLER_0_28_248
*1330 FILLER_0_28_253
*1331 FILLER_0_28_265
*1332 FILLER_0_28_270
*1333 FILLER_0_28_285
*1334 FILLER_0_28_29
*1335 FILLER_0_28_3
*1336 FILLER_0_28_300
*1337 FILLER_0_28_309
*1338 FILLER_0_28_318
*1339 FILLER_0_28_322
*1340 FILLER_0_28_326
*1341 FILLER_0_28_346
*1342 FILLER_0_28_350
*1343 FILLER_0_28_49
*1344 FILLER_0_28_70
*1345 FILLER_0_28_90
*1346 FILLER_0_29_113
*1347 FILLER_0_29_118
*1348 FILLER_0_29_134
*1349 FILLER_0_29_145
*1350 FILLER_0_29_15
*1351 FILLER_0_29_154
*1352 FILLER_0_29_166
*1353 FILLER_0_29_169
*1354 FILLER_0_29_196
*1355 FILLER_0_29_202
*1356 FILLER_0_29_215
*1357 FILLER_0_29_223
*1358 FILLER_0_29_225
*1359 FILLER_0_29_233
*1360 FILLER_0_29_250
*1361 FILLER_0_29_263
*1362 FILLER_0_29_277
*1363 FILLER_0_29_287
*1364 FILLER_0_29_295
*1365 FILLER_0_29_3
*1366 FILLER_0_29_303
*1367 FILLER_0_29_31
*1368 FILLER_0_29_311
*1369 FILLER_0_29_315
*1370 FILLER_0_29_319
*1371 FILLER_0_29_330
*1372 FILLER_0_29_349
*1373 FILLER_0_29_37
*1374 FILLER_0_29_41
*1375 FILLER_0_29_53
*1376 FILLER_0_29_64
*1377 FILLER_0_29_72
*1378 FILLER_0_29_85
*1379 FILLER_0_2_109
*1380 FILLER_0_2_121
*1381 FILLER_0_2_133
*1382 FILLER_0_2_139
*1383 FILLER_0_2_141
*1384 FILLER_0_2_15
*1385 FILLER_0_2_153
*1386 FILLER_0_2_165
*1387 FILLER_0_2_177
*1388 FILLER_0_2_189
*1389 FILLER_0_2_195
*1390 FILLER_0_2_197
*1391 FILLER_0_2_209
*1392 FILLER_0_2_221
*1393 FILLER_0_2_233
*1394 FILLER_0_2_245
*1395 FILLER_0_2_251
*1396 FILLER_0_2_253
*1397 FILLER_0_2_265
*1398 FILLER_0_2_27
*1399 FILLER_0_2_277
*1400 FILLER_0_2_289
*1401 FILLER_0_2_29
*1402 FILLER_0_2_3
*1403 FILLER_0_2_301
*1404 FILLER_0_2_307
*1405 FILLER_0_2_309
*1406 FILLER_0_2_321
*1407 FILLER_0_2_333
*1408 FILLER_0_2_345
*1409 FILLER_0_2_41
*1410 FILLER_0_2_53
*1411 FILLER_0_2_65
*1412 FILLER_0_2_77
*1413 FILLER_0_2_83
*1414 FILLER_0_2_85
*1415 FILLER_0_2_97
*1416 FILLER_0_30_104
*1417 FILLER_0_30_116
*1418 FILLER_0_30_122
*1419 FILLER_0_30_138
*1420 FILLER_0_30_15
*1421 FILLER_0_30_168
*1422 FILLER_0_30_189
*1423 FILLER_0_30_195
*1424 FILLER_0_30_197
*1425 FILLER_0_30_205
*1426 FILLER_0_30_219
*1427 FILLER_0_30_233
*1428 FILLER_0_30_251
*1429 FILLER_0_30_253
*1430 FILLER_0_30_26
*1431 FILLER_0_30_271
*1432 FILLER_0_30_279
*1433 FILLER_0_30_3
*1434 FILLER_0_30_306
*1435 FILLER_0_30_309
*1436 FILLER_0_30_325
*1437 FILLER_0_30_329
*1438 FILLER_0_30_342
*1439 FILLER_0_30_350
*1440 FILLER_0_30_53
*1441 FILLER_0_30_63
*1442 FILLER_0_30_69
*1443 FILLER_0_30_73
*1444 FILLER_0_30_81
*1445 FILLER_0_30_85
*1446 FILLER_0_30_91
*1447 FILLER_0_31_108
*1448 FILLER_0_31_113
*1449 FILLER_0_31_125
*1450 FILLER_0_31_137
*1451 FILLER_0_31_15
*1452 FILLER_0_31_153
*1453 FILLER_0_31_165
*1454 FILLER_0_31_169
*1455 FILLER_0_31_225
*1456 FILLER_0_31_243
*1457 FILLER_0_31_249
*1458 FILLER_0_31_257
*1459 FILLER_0_31_265
*1460 FILLER_0_31_273
*1461 FILLER_0_31_279
*1462 FILLER_0_31_281
*1463 FILLER_0_31_285
*1464 FILLER_0_31_289
*1465 FILLER_0_31_3
*1466 FILLER_0_31_301
*1467 FILLER_0_31_317
*1468 FILLER_0_31_329
*1469 FILLER_0_31_335
*1470 FILLER_0_31_337
*1471 FILLER_0_31_348
*1472 FILLER_0_31_39
*1473 FILLER_0_31_45
*1474 FILLER_0_31_53
*1475 FILLER_0_31_62
*1476 FILLER_0_31_68
*1477 FILLER_0_31_84
*1478 FILLER_0_31_96
*1479 FILLER_0_32_125
*1480 FILLER_0_32_138
*1481 FILLER_0_32_148
*1482 FILLER_0_32_15
*1483 FILLER_0_32_158
*1484 FILLER_0_32_170
*1485 FILLER_0_32_189
*1486 FILLER_0_32_195
*1487 FILLER_0_32_197
*1488 FILLER_0_32_228
*1489 FILLER_0_32_260
*1490 FILLER_0_32_27
*1491 FILLER_0_32_276
*1492 FILLER_0_32_29
*1493 FILLER_0_32_290
*1494 FILLER_0_32_298
*1495 FILLER_0_32_3
*1496 FILLER_0_32_304
*1497 FILLER_0_32_316
*1498 FILLER_0_32_340
*1499 FILLER_0_32_348
*1500 FILLER_0_32_41
*1501 FILLER_0_32_53
*1502 FILLER_0_32_61
*1503 FILLER_0_32_67
*1504 FILLER_0_32_75
*1505 FILLER_0_32_81
*1506 FILLER_0_32_92
*1507 FILLER_0_33_101
*1508 FILLER_0_33_106
*1509 FILLER_0_33_116
*1510 FILLER_0_33_122
*1511 FILLER_0_33_15
*1512 FILLER_0_33_164
*1513 FILLER_0_33_188
*1514 FILLER_0_33_221
*1515 FILLER_0_33_23
*1516 FILLER_0_33_254
*1517 FILLER_0_33_260
*1518 FILLER_0_33_276
*1519 FILLER_0_33_281
*1520 FILLER_0_33_292
*1521 FILLER_0_33_3
*1522 FILLER_0_33_325
*1523 FILLER_0_33_333
*1524 FILLER_0_33_349
*1525 FILLER_0_33_54
*1526 FILLER_0_33_76
*1527 FILLER_0_33_93
*1528 FILLER_0_34_104
*1529 FILLER_0_34_118
*1530 FILLER_0_34_130
*1531 FILLER_0_34_138
*1532 FILLER_0_34_15
*1533 FILLER_0_34_151
*1534 FILLER_0_34_159
*1535 FILLER_0_34_174
*1536 FILLER_0_34_195
*1537 FILLER_0_34_229
*1538 FILLER_0_34_233
*1539 FILLER_0_34_246
*1540 FILLER_0_34_26
*1541 FILLER_0_34_262
*1542 FILLER_0_34_266
*1543 FILLER_0_34_278
*1544 FILLER_0_34_29
*1545 FILLER_0_34_290
*1546 FILLER_0_34_294
*1547 FILLER_0_34_298
*1548 FILLER_0_34_3
*1549 FILLER_0_34_306
*1550 FILLER_0_34_309
*1551 FILLER_0_34_323
*1552 FILLER_0_34_335
*1553 FILLER_0_34_346
*1554 FILLER_0_34_350
*1555 FILLER_0_34_42
*1556 FILLER_0_34_48
*1557 FILLER_0_34_57
*1558 FILLER_0_34_78
*1559 FILLER_0_34_90
*1560 FILLER_0_34_94
*1561 FILLER_0_35_100
*1562 FILLER_0_35_110
*1563 FILLER_0_35_113
*1564 FILLER_0_35_118
*1565 FILLER_0_35_124
*1566 FILLER_0_35_137
*1567 FILLER_0_35_142
*1568 FILLER_0_35_15
*1569 FILLER_0_35_167
*1570 FILLER_0_35_187
*1571 FILLER_0_35_19
*1572 FILLER_0_35_198
*1573 FILLER_0_35_210
*1574 FILLER_0_35_222
*1575 FILLER_0_35_231
*1576 FILLER_0_35_247
*1577 FILLER_0_35_251
*1578 FILLER_0_35_259