*SPEF "ieee 1481-1999"
*DESIGN "tt_um_simplepiano"
*DATE "11:11:11 Fri 11 11, 1111"
*VENDOR "OpenRCX"
*PROGRAM "Parallel Extraction"
*VERSION "1.0"
*DESIGN_FLOW "NAME_SCOPE LOCAL" "PIN_CAP NONE"
*DIVIDER /
*DELIMITER :
*BUS_DELIMITER []
*T_UNIT 1 NS
*C_UNIT 1 PF
*R_UNIT 1 OHM
*L_UNIT 1 HENRY

*NAME_MAP
*3 clk
*4 ena
*5 rst_n
*6 ui_in[0]
*7 ui_in[1]
*8 ui_in[2]
*9 ui_in[3]
*10 ui_in[4]
*11 ui_in[5]
*12 ui_in[6]
*13 ui_in[7]
*14 uio_in[0]
*15 uio_in[1]
*16 uio_in[2]
*17 uio_in[3]
*18 uio_in[4]
*19 uio_in[5]
*20 uio_in[6]
*21 uio_in[7]
*22 net19
*23 net20
*24 net21
*25 net22
*26 net38
*27 net39
*28 net40
*29 net41
*30 net23
*31 net24
*32 net25
*33 net26
*34 net27
*35 net28
*36 net29
*37 net30
*38 uo_out[0]
*39 net31
*40 net32
*41 net33
*42 net34
*43 net35
*44 net36
*45 net37
*46 _000_
*47 _001_
*48 _002_
*49 _003_
*50 _004_
*51 _005_
*52 _006_
*53 _007_
*54 _008_
*55 _009_
*56 _010_
*57 _011_
*58 _012_
*59 _013_
*60 _014_
*61 _015_
*62 _016_
*63 _017_
*64 _018_
*65 _019_
*66 _020_
*67 _021_
*68 _022_
*69 _023_
*70 _024_
*71 _025_
*72 _026_
*73 _027_
*74 _028_
*75 _029_
*76 _030_
*77 _031_
*78 _032_
*79 _033_
*80 _034_
*81 _035_
*82 _036_
*83 _037_
*84 _038_
*85 _039_
*86 _040_
*87 _041_
*88 _042_
*89 _043_
*90 _044_
*91 _045_
*92 _046_
*93 _047_
*94 _048_
*95 _049_
*96 _050_
*97 _051_
*98 _052_
*99 _053_
*100 _054_
*101 _055_
*102 _056_
*103 _057_
*104 _058_
*105 _059_
*106 _060_
*107 _061_
*108 _062_
*109 _063_
*110 _064_
*111 _065_
*112 _066_
*113 _067_
*114 _068_
*115 _069_
*116 _070_
*117 _071_
*118 _072_
*119 _073_
*120 _074_
*121 _075_
*122 _076_
*123 _077_
*124 _078_
*125 _079_
*126 _080_
*127 _081_
*128 _082_
*129 _083_
*130 _084_
*131 _085_
*132 _086_
*133 _087_
*134 _088_
*135 _089_
*136 _090_
*137 _091_
*138 _092_
*139 _093_
*140 _094_
*141 _095_
*142 _096_
*143 _097_
*144 _098_
*145 _099_
*146 _100_
*147 _101_
*148 _102_
*149 _103_
*150 _104_
*151 _105_
*152 _106_
*153 _107_
*154 _108_
*155 _109_
*156 _110_
*157 _111_
*158 _112_
*159 _113_
*160 _114_
*161 _115_
*162 _116_
*163 _117_
*164 _118_
*165 _119_
*166 _120_
*167 _121_
*168 _122_
*169 _123_
*170 _124_
*171 _125_
*172 _126_
*173 _127_
*174 _128_
*175 _129_
*176 _130_
*177 _131_
*178 _132_
*179 _133_
*180 _134_
*181 _135_
*182 _136_
*183 _137_
*184 _138_
*185 _139_
*186 _140_
*187 _141_
*188 _142_
*189 _143_
*190 _144_
*191 _145_
*192 _146_
*193 _147_
*194 _148_
*195 _149_
*196 _150_
*197 _151_
*198 _152_
*199 _153_
*200 _154_
*201 _155_
*202 _156_
*203 _157_
*204 _158_
*205 _159_
*206 _160_
*207 _161_
*208 _162_
*209 _163_
*210 _164_
*211 _165_
*212 _166_
*213 _167_
*214 _168_
*215 _169_
*216 _170_
*217 _171_
*218 _172_
*219 _173_
*220 _174_
*221 _175_
*222 _176_
*223 _177_
*224 _178_
*225 _179_
*226 _180_
*227 _181_
*228 _182_
*229 _183_
*230 _184_
*231 _185_
*232 _186_
*233 _187_
*234 _188_
*235 _189_
*236 _190_
*237 _191_
*238 _192_
*239 _193_
*240 _194_
*241 _195_
*242 _196_
*243 _197_
*244 _198_
*245 _199_
*246 _200_
*247 _201_
*248 _202_
*249 _203_
*250 _204_
*251 _205_
*252 _206_
*253 _207_
*254 _208_
*255 _209_
*256 _210_
*257 _211_
*258 _212_
*259 _213_
*260 _214_
*261 _215_
*262 _216_
*263 _217_
*264 _218_
*265 _219_
*266 _220_
*267 _221_
*268 _222_
*269 _223_
*270 _224_
*271 _225_
*272 _226_
*273 _227_
*274 _228_
*275 _229_
*276 _230_
*277 _231_
*278 _232_
*279 _233_
*280 _234_
*281 _235_
*282 _236_
*283 _237_
*284 _238_
*285 _239_
*286 _240_
*287 _241_
*288 _242_
*289 _243_
*290 _244_
*291 _245_
*292 _246_
*293 _247_
*294 _248_
*295 _249_
*296 _250_
*297 _251_
*298 _252_
*299 _253_
*300 _254_
*301 _255_
*302 _256_
*303 _257_
*304 _258_
*305 _259_
*306 _260_
*307 _261_
*308 _262_
*309 _263_
*310 _264_
*311 _265_
*312 _266_
*313 _267_
*314 _268_
*315 _269_
*316 _270_
*317 _271_
*318 _272_
*319 _273_
*320 _274_
*321 _275_
*322 _276_
*323 _277_
*324 _278_
*325 _279_
*326 _280_
*327 _281_
*328 _282_
*329 _283_
*330 _284_
*331 _285_
*332 _286_
*333 _287_
*334 _288_
*335 _289_
*336 _290_
*337 _291_
*338 _292_
*339 _293_
*340 _294_
*341 _295_
*342 _296_
*343 _297_
*344 _298_
*345 _299_
*346 _300_
*347 _301_
*348 _302_
*349 _303_
*350 _304_
*351 _305_
*352 _306_
*353 _307_
*354 _308_
*355 _309_
*356 _310_
*357 _311_
*358 _312_
*359 _313_
*360 _314_
*361 clknet_0_clk
*362 clknet_3_0__leaf_clk
*363 clknet_3_1__leaf_clk
*364 clknet_3_2__leaf_clk
*365 clknet_3_3__leaf_clk
*366 clknet_3_4__leaf_clk
*367 clknet_3_5__leaf_clk
*368 clknet_3_6__leaf_clk
*369 clknet_3_7__leaf_clk
*370 net1
*371 net10
*372 net11
*373 net12
*374 net13
*375 net14
*376 net15
*377 net16
*378 net17
*379 net18
*380 net2
*381 net3
*382 net4
*383 net42
*384 net43
*385 net44
*386 net45
*387 net46
*388 net47
*389 net48
*390 net49
*391 net5
*392 net50
*393 net51
*394 net52
*395 net53
*396 net54
*397 net55
*398 net6
*399 net7
*400 net8
*401 net9
*402 note_lut_dut\.div\[0\]
*403 note_lut_dut\.div\[10\]
*404 note_lut_dut\.div\[11\]
*405 note_lut_dut\.div\[12\]
*406 note_lut_dut\.div\[13\]
*407 note_lut_dut\.div\[14\]
*408 note_lut_dut\.div\[1\]
*409 note_lut_dut\.div\[2\]
*410 note_lut_dut\.div\[3\]
*411 note_lut_dut\.div\[4\]
*412 note_lut_dut\.div\[5\]
*413 note_lut_dut\.div\[6\]
*414 note_lut_dut\.div\[7\]
*415 note_lut_dut\.div\[8\]
*416 note_lut_dut\.div\[9\]
*417 note_lut_dut\.div_pre\[0\]
*418 note_lut_dut\.div_pre\[10\]
*419 note_lut_dut\.div_pre\[11\]
*420 note_lut_dut\.div_pre\[12\]
*421 note_lut_dut\.div_pre\[13\]
*422 note_lut_dut\.div_pre\[14\]
*423 note_lut_dut\.div_pre\[1\]
*424 note_lut_dut\.div_pre\[2\]
*425 note_lut_dut\.div_pre\[3\]
*426 note_lut_dut\.div_pre\[4\]
*427 note_lut_dut\.div_pre\[5\]
*428 note_lut_dut\.div_pre\[6\]
*429 note_lut_dut\.div_pre\[7\]
*430 note_lut_dut\.div_pre\[8\]
*431 note_lut_dut\.div_pre\[9\]
*432 note_lut_dut\.note\[0\]
*433 note_lut_dut\.note\[1\]
*434 note_lut_dut\.note\[2\]
*435 note_lut_dut\.note\[3\]
*436 tone_gen_1\.count\[0\]
*437 tone_gen_1\.count\[10\]
*438 tone_gen_1\.count\[11\]
*439 tone_gen_1\.count\[12\]
*440 tone_gen_1\.count\[13\]
*441 tone_gen_1\.count\[14\]
*442 tone_gen_1\.count\[15\]
*443 tone_gen_1\.count\[1\]
*444 tone_gen_1\.count\[2\]
*445 tone_gen_1\.count\[3\]
*446 tone_gen_1\.count\[4\]
*447 tone_gen_1\.count\[5\]
*448 tone_gen_1\.count\[6\]
*449 tone_gen_1\.count\[7\]
*450 tone_gen_1\.count\[8\]
*451 tone_gen_1\.count\[9\]
*452 tone_gen_1\.div_hold\[0\]
*453 tone_gen_1\.div_hold\[10\]
*454 tone_gen_1\.div_hold\[11\]
*455 tone_gen_1\.div_hold\[12\]
*456 tone_gen_1\.div_hold\[13\]
*457 tone_gen_1\.div_hold\[14\]
*458 tone_gen_1\.div_hold\[1\]
*459 tone_gen_1\.div_hold\[2\]
*460 tone_gen_1\.div_hold\[3\]
*461 tone_gen_1\.div_hold\[4\]
*462 tone_gen_1\.div_hold\[5\]
*463 tone_gen_1\.div_hold\[6\]
*464 tone_gen_1\.div_hold\[7\]
*465 tone_gen_1\.div_hold\[8\]
*466 tone_gen_1\.div_hold\[9\]
*467 tone_gen_1\.tone
*468 FILLER_0_0_109
*469 FILLER_0_0_113
*470 FILLER_0_0_125
*471 FILLER_0_0_137
*472 FILLER_0_0_141
*473 FILLER_0_0_15
*474 FILLER_0_0_153
*475 FILLER_0_0_165
*476 FILLER_0_0_169
*477 FILLER_0_0_181
*478 FILLER_0_0_193
*479 FILLER_0_0_197
*480 FILLER_0_0_209
*481 FILLER_0_0_221
*482 FILLER_0_0_225
*483 FILLER_0_0_237
*484 FILLER_0_0_249
*485 FILLER_0_0_253
*486 FILLER_0_0_265
*487 FILLER_0_0_27
*488 FILLER_0_0_277
*489 FILLER_0_0_281
*490 FILLER_0_0_29
*491 FILLER_0_0_293
*492 FILLER_0_0_3
*493 FILLER_0_0_305
*494 FILLER_0_0_309
*495 FILLER_0_0_321
*496 FILLER_0_0_333
*497 FILLER_0_0_337
*498 FILLER_0_0_349
*499 FILLER_0_0_41
*500 FILLER_0_0_53
*501 FILLER_0_0_57
*502 FILLER_0_0_69
*503 FILLER_0_0_81
*504 FILLER_0_0_85
*505 FILLER_0_0_97
*506 FILLER_0_10_109
*507 FILLER_0_10_121
*508 FILLER_0_10_133
*509 FILLER_0_10_139
*510 FILLER_0_10_141
*511 FILLER_0_10_15
*512 FILLER_0_10_153
*513 FILLER_0_10_165
*514 FILLER_0_10_177
*515 FILLER_0_10_189
*516 FILLER_0_10_195
*517 FILLER_0_10_197
*518 FILLER_0_10_209
*519 FILLER_0_10_221
*520 FILLER_0_10_233
*521 FILLER_0_10_245
*522 FILLER_0_10_251
*523 FILLER_0_10_253
*524 FILLER_0_10_265
*525 FILLER_0_10_27
*526 FILLER_0_10_277
*527 FILLER_0_10_289
*528 FILLER_0_10_29
*529 FILLER_0_10_3
*530 FILLER_0_10_301
*531 FILLER_0_10_307
*532 FILLER_0_10_309
*533 FILLER_0_10_321
*534 FILLER_0_10_333
*535 FILLER_0_10_345
*536 FILLER_0_10_41
*537 FILLER_0_10_53
*538 FILLER_0_10_65
*539 FILLER_0_10_77
*540 FILLER_0_10_83
*541 FILLER_0_10_85
*542 FILLER_0_10_97
*543 FILLER_0_11_105
*544 FILLER_0_11_111
*545 FILLER_0_11_113
*546 FILLER_0_11_125
*547 FILLER_0_11_137
*548 FILLER_0_11_149
*549 FILLER_0_11_15
*550 FILLER_0_11_161
*551 FILLER_0_11_167
*552 FILLER_0_11_169
*553 FILLER_0_11_181
*554 FILLER_0_11_193
*555 FILLER_0_11_205
*556 FILLER_0_11_217
*557 FILLER_0_11_223
*558 FILLER_0_11_225
*559 FILLER_0_11_237
*560 FILLER_0_11_249
*561 FILLER_0_11_261
*562 FILLER_0_11_27
*563 FILLER_0_11_273
*564 FILLER_0_11_279
*565 FILLER_0_11_281
*566 FILLER_0_11_293
*567 FILLER_0_11_3
*568 FILLER_0_11_305
*569 FILLER_0_11_317
*570 FILLER_0_11_329
*571 FILLER_0_11_335
*572 FILLER_0_11_337
*573 FILLER_0_11_349
*574 FILLER_0_11_39
*575 FILLER_0_11_51
*576 FILLER_0_11_55
*577 FILLER_0_11_57
*578 FILLER_0_11_69
*579 FILLER_0_11_81
*580 FILLER_0_11_93
*581 FILLER_0_12_109
*582 FILLER_0_12_121
*583 FILLER_0_12_133
*584 FILLER_0_12_139
*585 FILLER_0_12_141
*586 FILLER_0_12_15
*587 FILLER_0_12_153
*588 FILLER_0_12_165
*589 FILLER_0_12_177
*590 FILLER_0_12_189
*591 FILLER_0_12_195
*592 FILLER_0_12_197
*593 FILLER_0_12_209
*594 FILLER_0_12_221
*595 FILLER_0_12_233
*596 FILLER_0_12_245
*597 FILLER_0_12_251
*598 FILLER_0_12_253
*599 FILLER_0_12_265
*600 FILLER_0_12_27
*601 FILLER_0_12_277
*602 FILLER_0_12_289
*603 FILLER_0_12_29
*604 FILLER_0_12_3
*605 FILLER_0_12_301
*606 FILLER_0_12_307
*607 FILLER_0_12_309
*608 FILLER_0_12_321
*609 FILLER_0_12_333
*610 FILLER_0_12_345
*611 FILLER_0_12_41
*612 FILLER_0_12_53
*613 FILLER_0_12_65
*614 FILLER_0_12_77
*615 FILLER_0_12_83
*616 FILLER_0_12_85
*617 FILLER_0_12_97
*618 FILLER_0_13_105
*619 FILLER_0_13_111
*620 FILLER_0_13_113
*621 FILLER_0_13_125
*622 FILLER_0_13_137
*623 FILLER_0_13_149
*624 FILLER_0_13_15
*625 FILLER_0_13_161
*626 FILLER_0_13_167
*627 FILLER_0_13_169
*628 FILLER_0_13_181
*629 FILLER_0_13_193
*630 FILLER_0_13_205
*631 FILLER_0_13_217
*632 FILLER_0_13_223
*633 FILLER_0_13_225
*634 FILLER_0_13_237
*635 FILLER_0_13_249
*636 FILLER_0_13_261
*637 FILLER_0_13_27
*638 FILLER_0_13_273
*639 FILLER_0_13_279
*640 FILLER_0_13_281
*641 FILLER_0_13_293
*642 FILLER_0_13_3
*643 FILLER_0_13_305
*644 FILLER_0_13_317
*645 FILLER_0_13_329
*646 FILLER_0_13_335
*647 FILLER_0_13_337
*648 FILLER_0_13_349
*649 FILLER_0_13_39
*650 FILLER_0_13_51
*651 FILLER_0_13_55
*652 FILLER_0_13_57
*653 FILLER_0_13_69
*654 FILLER_0_13_81
*655 FILLER_0_13_93
*656 FILLER_0_14_109
*657 FILLER_0_14_121
*658 FILLER_0_14_133
*659 FILLER_0_14_139
*660 FILLER_0_14_141
*661 FILLER_0_14_15
*662 FILLER_0_14_153
*663 FILLER_0_14_165
*664 FILLER_0_14_177
*665 FILLER_0_14_189
*666 FILLER_0_14_195
*667 FILLER_0_14_197
*668 FILLER_0_14_209
*669 FILLER_0_14_221
*670 FILLER_0_14_233
*671 FILLER_0_14_245
*672 FILLER_0_14_251
*673 FILLER_0_14_253
*674 FILLER_0_14_265
*675 FILLER_0_14_27
*676 FILLER_0_14_277
*677 FILLER_0_14_289
*678 FILLER_0_14_29
*679 FILLER_0_14_3
*680 FILLER_0_14_301
*681 FILLER_0_14_307
*682 FILLER_0_14_309
*683 FILLER_0_14_321
*684 FILLER_0_14_333
*685 FILLER_0_14_345
*686 FILLER_0_14_41
*687 FILLER_0_14_53
*688 FILLER_0_14_65
*689 FILLER_0_14_77
*690 FILLER_0_14_83
*691 FILLER_0_14_85
*692 FILLER_0_14_97
*693 FILLER_0_15_105
*694 FILLER_0_15_111
*695 FILLER_0_15_113
*696 FILLER_0_15_125
*697 FILLER_0_15_137
*698 FILLER_0_15_149
*699 FILLER_0_15_15
*700 FILLER_0_15_161
*701 FILLER_0_15_167
*702 FILLER_0_15_169
*703 FILLER_0_15_181
*704 FILLER_0_15_193
*705 FILLER_0_15_205
*706 FILLER_0_15_217
*707 FILLER_0_15_223
*708 FILLER_0_15_225
*709 FILLER_0_15_237
*710 FILLER_0_15_249
*711 FILLER_0_15_254
*712 FILLER_0_15_266
*713 FILLER_0_15_27
*714 FILLER_0_15_278
*715 FILLER_0_15_281
*716 FILLER_0_15_293
*717 FILLER_0_15_3
*718 FILLER_0_15_305
*719 FILLER_0_15_317
*720 FILLER_0_15_329
*721 FILLER_0_15_335
*722 FILLER_0_15_337
*723 FILLER_0_15_349
*724 FILLER_0_15_39
*725 FILLER_0_15_51
*726 FILLER_0_15_55
*727 FILLER_0_15_57
*728 FILLER_0_15_69
*729 FILLER_0_15_81
*730 FILLER_0_15_93
*731 FILLER_0_16_109
*732 FILLER_0_16_121
*733 FILLER_0_16_133
*734 FILLER_0_16_139
*735 FILLER_0_16_141
*736 FILLER_0_16_15
*737 FILLER_0_16_152
*738 FILLER_0_16_156
*739 FILLER_0_16_174
*740 FILLER_0_16_186
*741 FILLER_0_16_194
*742 FILLER_0_16_229
*743 FILLER_0_16_250
*744 FILLER_0_16_269
*745 FILLER_0_16_27
*746 FILLER_0_16_275
*747 FILLER_0_16_29
*748 FILLER_0_16_292
*749 FILLER_0_16_3
*750 FILLER_0_16_304
*751 FILLER_0_16_309
*752 FILLER_0_16_331
*753 FILLER_0_16_343
*754 FILLER_0_16_41
*755 FILLER_0_16_53
*756 FILLER_0_16_65
*757 FILLER_0_16_77
*758 FILLER_0_16_83
*759 FILLER_0_16_85
*760 FILLER_0_16_97
*761 FILLER_0_17_105
*762 FILLER_0_17_137
*763 FILLER_0_17_143
*764 FILLER_0_17_15
*765 FILLER_0_17_169
*766 FILLER_0_17_175
*767 FILLER_0_17_197
*768 FILLER_0_17_209
*769 FILLER_0_17_218
*770 FILLER_0_17_248
*771 FILLER_0_17_27
*772 FILLER_0_17_273
*773 FILLER_0_17_293
*774 FILLER_0_17_299
*775 FILLER_0_17_3
*776 FILLER_0_17_320
*777 FILLER_0_17_332
*778 FILLER_0_17_337
*779 FILLER_0_17_349
*780 FILLER_0_17_39
*781 FILLER_0_17_51
*782 FILLER_0_17_55
*783 FILLER_0_17_57
*784 FILLER_0_17_69
*785 FILLER_0_17_81
*786 FILLER_0_17_93
*787 FILLER_0_18_106
*788 FILLER_0_18_118
*789 FILLER_0_18_126
*790 FILLER_0_18_139
*791 FILLER_0_18_15
*792 FILLER_0_18_161
*793 FILLER_0_18_184
*794 FILLER_0_18_192
*795 FILLER_0_18_204
*796 FILLER_0_18_216
*797 FILLER_0_18_220
*798 FILLER_0_18_226
*799 FILLER_0_18_241
*800 FILLER_0_18_251
*801 FILLER_0_18_27
*802 FILLER_0_18_277
*803 FILLER_0_18_285
*804 FILLER_0_18_29
*805 FILLER_0_18_296
*806 FILLER_0_18_3
*807 FILLER_0_18_302
*808 FILLER_0_18_316
*809 FILLER_0_18_341
*810 FILLER_0_18_349
*811 FILLER_0_18_41
*812 FILLER_0_18_53
*813 FILLER_0_18_65
*814 FILLER_0_18_77
*815 FILLER_0_18_83
*816 FILLER_0_18_85
*817 FILLER_0_18_97
*818 FILLER_0_19_113
*819 FILLER_0_19_128
*820 FILLER_0_19_136
*821 FILLER_0_19_144
*822 FILLER_0_19_15
*823 FILLER_0_19_159
*824 FILLER_0_19_167
*825 FILLER_0_19_176
*826 FILLER_0_19_184
*827 FILLER_0_19_195
*828 FILLER_0_19_223
*829 FILLER_0_19_233
*830 FILLER_0_19_242
*831 FILLER_0_19_254
*832 FILLER_0_19_27
*833 FILLER_0_19_274
*834 FILLER_0_19_293
*835 FILLER_0_19_297
*836 FILLER_0_19_3
*837 FILLER_0_19_314
*838 FILLER_0_19_329
*839 FILLER_0_19_335
*840 FILLER_0_19_337
*841 FILLER_0_19_349
*842 FILLER_0_19_39
*843 FILLER_0_19_51
*844 FILLER_0_19_55
*845 FILLER_0_19_57
*846 FILLER_0_19_69
*847 FILLER_0_19_81
*848 FILLER_0_19_93
*849 FILLER_0_1_105
*850 FILLER_0_1_111
*851 FILLER_0_1_113
*852 FILLER_0_1_125
*853 FILLER_0_1_137
*854 FILLER_0_1_149
*855 FILLER_0_1_15
*856 FILLER_0_1_161
*857 FILLER_0_1_167
*858 FILLER_0_1_169
*859 FILLER_0_1_181
*860 FILLER_0_1_193
*861 FILLER_0_1_205
*862 FILLER_0_1_217
*863 FILLER_0_1_223
*864 FILLER_0_1_225
*865 FILLER_0_1_237
*866 FILLER_0_1_249
*867 FILLER_0_1_261
*868 FILLER_0_1_27
*869 FILLER_0_1_273
*870 FILLER_0_1_279
*871 FILLER_0_1_281
*872 FILLER_0_1_293
*873 FILLER_0_1_3
*874 FILLER_0_1_305
*875 FILLER_0_1_317
*876 FILLER_0_1_329
*877 FILLER_0_1_335
*878 FILLER_0_1_337
*879 FILLER_0_1_349
*880 FILLER_0_1_39
*881 FILLER_0_1_51
*882 FILLER_0_1_55
*883 FILLER_0_1_57
*884 FILLER_0_1_69
*885 FILLER_0_1_81
*886 FILLER_0_1_93
*887 FILLER_0_20_101
*888 FILLER_0_20_118
*889 FILLER_0_20_137
*890 FILLER_0_20_141
*891 FILLER_0_20_145
*892 FILLER_0_20_15
*893 FILLER_0_20_152
*894 FILLER_0_20_164
*895 FILLER_0_20_176
*896 FILLER_0_20_194
*897 FILLER_0_20_205
*898 FILLER_0_20_216
*899 FILLER_0_20_228
*900 FILLER_0_20_232
*901 FILLER_0_20_236
*902 FILLER_0_20_248
*903 FILLER_0_20_259
*904 FILLER_0_20_27
*905 FILLER_0_20_271
*906 FILLER_0_20_277
*907 FILLER_0_20_29
*908 FILLER_0_20_3
*909 FILLER_0_20_301
*910 FILLER_0_20_307
*911 FILLER_0_20_309
*912 FILLER_0_20_313
*913 FILLER_0_20_330
*914 FILLER_0_20_342
*915 FILLER_0_20_350
*916 FILLER_0_20_41
*917 FILLER_0_20_53
*918 FILLER_0_20_65
*919 FILLER_0_20_77
*920 FILLER_0_20_83
*921 FILLER_0_20_85
*922 FILLER_0_20_97
*923 FILLER_0_21_105
*924 FILLER_0_21_109
*925 FILLER_0_21_113
*926 FILLER_0_21_121
*927 FILLER_0_21_127
*928 FILLER_0_21_139
*929 FILLER_0_21_147
*930 FILLER_0_21_15
*931 FILLER_0_21_151
*932 FILLER_0_21_155
*933 FILLER_0_21_167
*934 FILLER_0_21_172
*935 FILLER_0_21_184
*936 FILLER_0_21_195
*937 FILLER_0_21_199
*938 FILLER_0_21_225
*939 FILLER_0_21_233
*940 FILLER_0_21_255
*941 FILLER_0_21_27
*942 FILLER_0_21_270
*943 FILLER_0_21_276
*944 FILLER_0_21_289
*945 FILLER_0_21_3
*946 FILLER_0_21_315
*947 FILLER_0_21_329
*948 FILLER_0_21_335
*949 FILLER_0_21_337
*950 FILLER_0_21_349
*951 FILLER_0_21_39
*952 FILLER_0_21_51
*953 FILLER_0_21_55
*954 FILLER_0_21_57
*955 FILLER_0_21_69
*956 FILLER_0_21_81
*957 FILLER_0_21_93
*958 FILLER_0_22_114
*959 FILLER_0_22_118
*960 FILLER_0_22_139
*961 FILLER_0_22_141
*962 FILLER_0_22_15
*963 FILLER_0_22_190
*964 FILLER_0_22_197
*965 FILLER_0_22_209
*966 FILLER_0_22_216
*967 FILLER_0_22_224
*968 FILLER_0_22_233
*969 FILLER_0_22_242
*970 FILLER_0_22_250
*971 FILLER_0_22_260
*972 FILLER_0_22_27
*973 FILLER_0_22_272
*974 FILLER_0_22_284
*975 FILLER_0_22_29
*976 FILLER_0_22_292
*977 FILLER_0_22_3
*978 FILLER_0_22_304
*979 FILLER_0_22_309
*980 FILLER_0_22_313
*981 FILLER_0_22_324
*982 FILLER_0_22_330
*983 FILLER_0_22_350
*984 FILLER_0_22_41
*985 FILLER_0_22_53
*986 FILLER_0_22_65
*987 FILLER_0_22_77
*988 FILLER_0_22_83
*989 FILLER_0_22_85
*990 FILLER_0_22_97
*991 FILLER_0_23_116
*992 FILLER_0_23_128
*993 FILLER_0_23_134
*994 FILLER_0_23_146
*995 FILLER_0_23_15
*996 FILLER_0_23_154
*997 FILLER_0_23_161
*998 FILLER_0_23_167
*999 FILLER_0_23_212
*1000 FILLER_0_23_232
*1001 FILLER_0_23_244
*1002 FILLER_0_23_250
*1003 FILLER_0_23_256
*1004 FILLER_0_23_268
*1005 FILLER_0_23_27
*1006 FILLER_0_23_279
*1007 FILLER_0_23_297
*1008 FILLER_0_23_3
*1009 FILLER_0_23_330
*1010 FILLER_0_23_337
*1011 FILLER_0_23_349
*1012 FILLER_0_23_39
*1013 FILLER_0_23_51
*1014 FILLER_0_23_55
*1015 FILLER_0_23_57
*1016 FILLER_0_23_69
*1017 FILLER_0_23_81
*1018 FILLER_0_23_93
*1019 FILLER_0_24_109
*1020 FILLER_0_24_113
*1021 FILLER_0_24_122
*1022 FILLER_0_24_148
*1023 FILLER_0_24_15
*1024 FILLER_0_24_177
*1025 FILLER_0_24_194
*1026 FILLER_0_24_200
*1027 FILLER_0_24_204
*1028 FILLER_0_24_233
*1029 FILLER_0_24_269
*1030 FILLER_0_24_27
*1031 FILLER_0_24_281
*1032 FILLER_0_24_29
*1033 FILLER_0_24_293
*1034 FILLER_0_24_3
*1035 FILLER_0_24_302
*1036 FILLER_0_24_309
*1037 FILLER_0_24_317
*1038 FILLER_0_24_324
*1039 FILLER_0_24_342
*1040 FILLER_0_24_350
*1041 FILLER_0_24_41
*1042 FILLER_0_24_53
*1043 FILLER_0_24_65
*1044 FILLER_0_24_77
*1045 FILLER_0_24_83
*1046 FILLER_0_24_85
*1047 FILLER_0_24_97
*1048 FILLER_0_25_105
*1049 FILLER_0_25_111
*1050 FILLER_0_25_113
*1051 FILLER_0_25_126
*1052 FILLER_0_25_130
*1053 FILLER_0_25_134
*1054 FILLER_0_25_138
*1055 FILLER_0_25_15
*1056 FILLER_0_25_155
*1057 FILLER_0_25_160
*1058 FILLER_0_25_169
*1059 FILLER_0_25_181
*1060 FILLER_0_25_185
*1061 FILLER_0_25_202
*1062 FILLER_0_25_223
*1063 FILLER_0_25_225
*1064 FILLER_0_25_229
*1065 FILLER_0_25_233
*1066 FILLER_0_25_245
*1067 FILLER_0_25_257
*1068 FILLER_0_25_269
*1069 FILLER_0_25_27
*1070 FILLER_0_25_277
*1071 FILLER_0_25_288
*1072 FILLER_0_25_292
*1073 FILLER_0_25_3
*1074 FILLER_0_25_324
*1075 FILLER_0_25_328
*1076 FILLER_0_25_344
*1077 FILLER_0_25_350
*1078 FILLER_0_25_39
*1079 FILLER_0_25_51
*1080 FILLER_0_25_55
*1081 FILLER_0_25_57
*1082 FILLER_0_25_69
*1083 FILLER_0_25_81
*1084 FILLER_0_25_93
*1085 FILLER_0_26_101
*1086 FILLER_0_26_123
*1087 FILLER_0_26_141
*1088 FILLER_0_26_15
*1089 FILLER_0_26_153
*1090 FILLER_0_26_170
*1091 FILLER_0_26_189
*1092 FILLER_0_26_195
*1093 FILLER_0_26_197
*1094 FILLER_0_26_214
*1095 FILLER_0_26_218
*1096 FILLER_0_26_251
*1097 FILLER_0_26_269
*1098 FILLER_0_26_27
*1099 FILLER_0_26_286
*1100 FILLER_0_26_29
*1101 FILLER_0_26_294
*1102 FILLER_0_26_3
*1103 FILLER_0_26_300
*1104 FILLER_0_26_309
*1105 FILLER_0_26_318
*1106 FILLER_0_26_336
*1107 FILLER_0_26_348
*1108 FILLER_0_26_41
*1109 FILLER_0_26_53
*1110 FILLER_0_26_65
*1111 FILLER_0_26_77
*1112 FILLER_0_26_83
*1113 FILLER_0_26_85
*1114 FILLER_0_26_97
*1115 FILLER_0_27_105
*1116 FILLER_0_27_110
*1117 FILLER_0_27_118
*1118 FILLER_0_27_130
*1119 FILLER_0_27_15
*1120 FILLER_0_27_155
*1121 FILLER_0_27_167
*1122 FILLER_0_27_169
*1123 FILLER_0_27_181
*1124 FILLER_0_27_193
*1125 FILLER_0_27_203
*1126 FILLER_0_27_215
*1127 FILLER_0_27_223
*1128 FILLER_0_27_245
*1129 FILLER_0_27_257
*1130 FILLER_0_27_27
*1131 FILLER_0_27_276
*1132 FILLER_0_27_281
*1133 FILLER_0_27_3
*1134 FILLER_0_27_303
*1135 FILLER_0_27_325
*1136 FILLER_0_27_333
*1137 FILLER_0_27_39
*1138 FILLER_0_27_51
*1139 FILLER_0_27_55
*1140 FILLER_0_27_57
*1141 FILLER_0_27_69
*1142 FILLER_0_27_81
*1143 FILLER_0_27_93
*1144 FILLER_0_28_109
*1145 FILLER_0_28_121
*1146 FILLER_0_28_137
*1147 FILLER_0_28_15
*1148 FILLER_0_28_175
*1149 FILLER_0_28_191
*1150 FILLER_0_28_195
*1151 FILLER_0_28_197
*1152 FILLER_0_28_203
*1153 FILLER_0_28_211
*1154 FILLER_0_28_215
*1155 FILLER_0_28_224
*1156 FILLER_0_28_249
*1157 FILLER_0_28_253
*1158 FILLER_0_28_263
*1159 FILLER_0_28_27
*1160 FILLER_0_28_275
*1161 FILLER_0_28_283
*1162 FILLER_0_28_29
*1163 FILLER_0_28_290
*1164 FILLER_0_28_297
*1165 FILLER_0_28_3
*1166 FILLER_0_28_305
*1167 FILLER_0_28_345
*1168 FILLER_0_28_41
*1169 FILLER_0_28_53
*1170 FILLER_0_28_65
*1171 FILLER_0_28_77
*1172 FILLER_0_28_83
*1173 FILLER_0_28_85
*1174 FILLER_0_28_97
*1175 FILLER_0_29_105
*1176 FILLER_0_29_111
*1177 FILLER_0_29_129
*1178 FILLER_0_29_15
*1179 FILLER_0_29_150
*1180 FILLER_0_29_158
*1181 FILLER_0_29_178
*1182 FILLER_0_29_199
*1183 FILLER_0_29_225
*1184 FILLER_0_29_244
*1185 FILLER_0_29_27
*1186 FILLER_0_29_289
*1187 FILLER_0_29_3
*1188 FILLER_0_29_300
*1189 FILLER_0_29_312
*1190 FILLER_0_29_317
*1191 FILLER_0_29_321
*1192 FILLER_0_29_330
*1193 FILLER_0_29_337
*1194 FILLER_0_29_349
*1195 FILLER_0_29_39
*1196 FILLER_0_29_51
*1197 FILLER_0_29_55
*1198 FILLER_0_29_57
*1199 FILLER_0_29_69
*1200 FILLER_0_29_81
*1201 FILLER_0_29_93
*1202 FILLER_0_2_109
*1203 FILLER_0_2_121
*1204 FILLER_0_2_133
*1205 FILLER_0_2_139
*1206 FILLER_0_2_141
*1207 FILLER_0_2_15
*1208 FILLER_0_2_153
*1209 FILLER_0_2_165
*1210 FILLER_0_2_177
*1211 FILLER_0_2_189
*1212 FILLER_0_2_195
*1213 FILLER_0_2_197
*1214 FILLER_0_2_209
*1215 FILLER_0_2_221
*1216 FILLER_0_2_233
*1217 FILLER_0_2_245
*1218 FILLER_0_2_251
*1219 FILLER_0_2_253
*1220 FILLER_0_2_265
*1221 FILLER_0_2_27
*1222 FILLER_0_2_277
*1223 FILLER_0_2_289
*1224 FILLER_0_2_29
*1225 FILLER_0_2_3
*1226 FILLER_0_2_301
*1227 FILLER_0_2_307
*1228 FILLER_0_2_309
*1229 FILLER_0_2_321
*1230 FILLER_0_2_333
*1231 FILLER_0_2_345
*1232 FILLER_0_2_41
*1233 FILLER_0_2_53
*1234 FILLER_0_2_65
*1235 FILLER_0_2_77
*1236 FILLER_0_2_83
*1237 FILLER_0_2_85
*1238 FILLER_0_2_97
*1239 FILLER_0_30_117
*1240 FILLER_0_30_125
*1241 FILLER_0_30_134
*1242 FILLER_0_30_141
*1243 FILLER_0_30_149
*1244 FILLER_0_30_15
*1245 FILLER_0_30_157
*1246 FILLER_0_30_167
*1247 FILLER_0_30_175
*1248 FILLER_0_30_184
*1249 FILLER_0_30_204
*1250 FILLER_0_30_218
*1251 FILLER_0_30_222
*1252 FILLER_0_30_231
*1253 FILLER_0_30_243
*1254 FILLER_0_30_251
*1255 FILLER_0_30_267
*1256 FILLER_0_30_27
*1257 FILLER_0_30_29
*1258 FILLER_0_30_3
*1259 FILLER_0_30_309
*1260 FILLER_0_30_317
*1261 FILLER_0_30_329
*1262 FILLER_0_30_333
*1263 FILLER_0_30_41
*1264 FILLER_0_30_53
*1265 FILLER_0_30_65
*1266 FILLER_0_30_77
*1267 FILLER_0_30_83
*1268 FILLER_0_30_85
*1269 FILLER_0_30_97
*1270 FILLER_0_31_105
*1271 FILLER_0_31_111
*1272 FILLER_0_31_113
*1273 FILLER_0_31_125
*1274 FILLER_0_31_140
*1275 FILLER_0_31_149
*1276 FILLER_0_31_15
*1277 FILLER_0_31_167
*1278 FILLER_0_31_176
*1279 FILLER_0_31_192
*1280 FILLER_0_31_201
*1281 FILLER_0_31_211
*1282 FILLER_0_31_223
*1283 FILLER_0_31_240
*1284 FILLER_0_31_248
*1285 FILLER_0_31_27
*1286 FILLER_0_31_272
*1287 FILLER_0_31_281
*1288 FILLER_0_31_287
*1289 FILLER_0_31_3
*1290 FILLER_0_31_301
*1291 FILLER_0_31_313
*1292 FILLER_0_31_331
*1293 FILLER_0_31_335
*1294 FILLER_0_31_337
*1295 FILLER_0_31_349
*1296 FILLER_0_31_39
*1297 FILLER_0_31_51
*1298 FILLER_0_31_55
*1299 FILLER_0_31_57
*1300 FILLER_0_31_69
*1301 FILLER_0_31_81
*1302 FILLER_0_31_93
*1303 FILLER_0_32_119
*1304 FILLER_0_32_130
*1305 FILLER_0_32_138
*1306 FILLER_0_32_147
*1307 FILLER_0_32_15
*1308 FILLER_0_32_161
*1309 FILLER_0_32_173
*1310 FILLER_0_32_185
*1311 FILLER_0_32_193
*1312 FILLER_0_32_197
*1313 FILLER_0_32_201
*1314 FILLER_0_32_225
*1315 FILLER_0_32_236
*1316 FILLER_0_32_244
*1317 FILLER_0_32_27
*1318 FILLER_0_32_279
*1319 FILLER_0_32_29
*1320 FILLER_0_32_291
*1321 FILLER_0_32_3
*1322 FILLER_0_32_303
*1323 FILLER_0_32_307
*1324 FILLER_0_32_309
*1325 FILLER_0_32_321
*1326 FILLER_0_32_346
*1327 FILLER_0_32_350
*1328 FILLER_0_32_41
*1329 FILLER_0_32_53
*1330 FILLER_0_32_65
*1331 FILLER_0_32_77
*1332 FILLER_0_32_83
*1333 FILLER_0_32_85
*1334 FILLER_0_32_97
*1335 FILLER_0_33_105
*1336 FILLER_0_33_110
*1337 FILLER_0_33_113
*1338 FILLER_0_33_125
*1339 FILLER_0_33_137
*1340 FILLER_0_33_141
*1341 FILLER_0_33_15
*1342 FILLER_0_33_157
*1343 FILLER_0_33_167
*1344 FILLER_0_33_173
*1345 FILLER_0_33_177
*1346 FILLER_0_33_189
*1347 FILLER_0_33_212
*1348 FILLER_0_33_258
*1349 FILLER_0_33_269
*1350 FILLER_0_33_27
*1351 FILLER_0_33_287
*1352 FILLER_0_33_291
*1353 FILLER_0_33_3
*1354 FILLER_0_33_301
*1355 FILLER_0_33_307
*1356 FILLER_0_33_325
*1357 FILLER_0_33_333
*1358 FILLER_0_33_345
*1359 FILLER_0_33_39
*1360 FILLER_0_33_51
*1361 FILLER_0_33_55
*1362 FILLER_0_33_57
*1363 FILLER_0_33_69
*1364 FILLER_0_33_81
*1365 FILLER_0_33_93
*1366 FILLER_0_34_109
*1367 FILLER_0_34_121
*1368 FILLER_0_34_137
*1369 FILLER_0_34_148
*1370 FILLER_0_34_15
*1371 FILLER_0_34_167
*1372 FILLER_0_34_182
*1373 FILLER_0_34_194
*1374 FILLER_0_34_205
*1375 FILLER_0_34_209
*1376 FILLER_0_34_234
*1377 FILLER_0_34_246
*1378 FILLER_0_34_253
*1379 FILLER_0_34_259
*1380 FILLER_0_34_267
*1381 FILLER_0_34_27
*1382 FILLER_0_34_278
*1383 FILLER_0_34_288
*1384 FILLER_0_34_29
*1385 FILLER_0_34_297
*1386 FILLER_0_34_3
*1387 FILLER_0_34_305
*1388 FILLER_0_34_309
*1389 FILLER_0_34_326
*1390 FILLER_0_34_41
*1391 FILLER_0_34_53
*1392 FILLER_0_34_65
*1393 FILLER_0_34_77
*1394 FILLER_0_34_83
*1395 FILLER_0_34_85
*1396 FILLER_0_34_97
*1397 FILLER_0_35_105
*1398 FILLER_0_35_111
*1399 FILLER_0_35_129
*1400 FILLER_0_35_140
*1401 FILLER_0_35_15
*1402 FILLER_0_35_152
*1403 FILLER_0_35_166
*1404 FILLER_0_35_169
*1405 FILLER_0_35_180
*1406 FILLER_0_35_188
*1407 FILLER_0_35_210
*1408 FILLER_0_35_222
*1409 FILLER_0_35_261
*1410 FILLER_0_35_265
*1411 FILLER_0_35_27
*1412 FILLER_0_35_279
*1413 FILLER_0_35_286
*1414 FILLER_0_35_3
*1415 FILLER_0_35_302
*1416 FILLER_0_35_333
*1417 FILLER_0_35_337
*1418 FILLER_0_35_349
*1419 FILLER_0_35_39
*1420 FILLER_0_35_51
*1421 FILLER_0_35_55
*1422 FILLER_0_35_57
*1423 FILLER_0_35_69
*1424 FILLER_0_35_81
*1425 FILLER_0_35_93
*1426 FILLER_0_36_109
*1427 FILLER_0_36_121
*1428 FILLER_0_36_133
*1429 FILLER_0_36_139
*1430 FILLER_0_36_15
*1431 FILLER_0_36_157
*1432 FILLER_0_36_161
*1433 FILLER_0_36_180
*1434 FILLER_0_36_192
*1435 FILLER_0_36_197
*1436 FILLER_0_36_206
*1437 FILLER_0_36_229
*1438 FILLER_0_36_241
*1439 FILLER_0_36_249
*1440 FILLER_0_36_261
*1441 FILLER_0_36_27
*1442 FILLER_0_36_278
*1443 FILLER_0_36_29
*1444 FILLER_0_36_290
*1445 FILLER_0_36_3
*1446 FILLER_0_36_302
*1447 FILLER_0_36_309
*1448 FILLER_0_36_331
*1449 FILLER_0_36_348
*1450 FILLER_0_36_41
*1451 FILLER_0_36_53
*1452 FILLER_0_36_65
*1453 FILLER_0_36_77
*1454 FILLER_0_36_83
*1455 FILLER_0_36_85
*1456 FILLER_0_36_97
*1457 FILLER_0_37_105
*1458 FILLER_0_37_111
*1459 FILLER_0_37_113
*1460 FILLER_0_37_125
*1461 FILLER_0_37_137
*1462 FILLER_0_37_149
*1463 FILLER_0_37_15
*1464 FILLER_0_37_161
*1465 FILLER_0_37_167
*1466 FILLER_0_37_178
*1467 FILLER_0_37_182
*1468 FILLER_0_37_195
*1469 FILLER_0_37_209
*1470 FILLER_0_37_221
*1471 FILLER_0_37_266
*1472 FILLER_0_37_27
*1473 FILLER_0_37_270
*1474 FILLER_0_37_278
*1475 FILLER_0_37_281
*1476 FILLER_0_37_286
*1477 FILLER_0_37_290
*1478 FILLER_0_37_3
*1479 FILLER_0_37_318
*1480 FILLER_0_37_345
*1481 FILLER_0_37_39
*1482 FILLER_0_37_51
*1483 FILLER_0_37_55
*1484 FILLER_0_37_57
*1485 FILLER_0_37_69
*1486 FILLER_0_37_81
*1487 FILLER_0_37_93
*1488 FILLER_0_38_102
*1489 FILLER_0_38_106
*1490 FILLER_0_38_110
*1491 FILLER_0_38_113
*1492 FILLER_0_38_118
*1493 FILLER_0_38_122
*1494 FILLER_0_38_126
*1495 FILLER_0_38_130
*1496 FILLER_0_38_134
*1497 FILLER_0_38_14
*1498 FILLER_0_38_144
*1499 FILLER_0_38_150
*1500 FILLER_0_38_154
*1501 FILLER_0_38_158
*1502 FILLER_0_38_18
*1503 FILLER_0_38_194
*1504 FILLER_0_38_214
*1505 FILLER_0_38_22
*1506 FILLER_0_38_222
*1507 FILLER_0_38_229
*1508 FILLER_0_38_239
*1509 FILLER_0_38_251
*1510 FILLER_0_38_259
*1511 FILLER_0_38_271
*1512 FILLER_0_38_284
*1513 FILLER_0_38_3
*1514 FILLER_0_38_304
*1515 FILLER_0_38_32
*1516 FILLER_0_38_329
*1517 FILLER_0_38_335
*1518 FILLER_0_38_341
*1519 FILLER_0_38_350
*1520 FILLER_0_38_38
*1521 FILLER_0_38_42
*1522 FILLER_0_38_46
*1523 FILLER_0_38_50
*1524 FILLER_0_38_54
*1525 FILLER_0_38_57
*1526 FILLER_0_38_62
*1527 FILLER_0_38_66
*1528 FILLER_0_38_70
*1529 FILLER_0_38_74
*1530 FILLER_0_38_78
*1531 FILLER_0_38_88
*1532 FILLER_0_38_94
*1533 FILLER_0_38_98
*1534 FILLER_0_3_105
*1535 FILLER_0_3_111
*1536 FILLER_0_3_113
*1537 FILLER_0_3_125
*1538 FILLER_0_3_137
*1539 FILLER_0_3_149
*1540 FILLER_0_3_15
*1541 FILLER_0_3_161
*1542 FILLER_0_3_167
*1543 FILLER_0_3_169
*1544 FILLER_0_3_181
*1545 FILLER_0_3_193
*1546 FILLER_0_3_205
*1547 FILLER_0_3_217
*1548 FILLER_0_3_223
*1549 FILLER_0_3_225
*1550 FILLER_0_3_237
*1551 FILLER_0_3_249
*1552 FILLER_0_3_261
*1553 FILLER_0_3_27
*1554 FILLER_0_3_273
*1555 FILLER_0_3_279
*1556 FILLER_0_3_281
*1557 FILLER_0_3_293
*1558 FILLER_0_3_3
*1559 FILLER_0_3_305
*1560 FILLER_0_3_317
*1561 FILLER_0_3_329
*1562 FILLER_0_3_335
*1563 FILLER_0_3_337
*1564 FILLER_0_3_349
*1565 FILLER_0_3_39
*1566 FILLER_0_3_51
*1567 FILLER_0_3_55
*1568 FILLER_0_3_57
*1569 FILLER_0_3_69
*1570 FILLER_0_3_81
*1571 FILLER_0_3_93
*1572 FILLER_0_4_109
*1573 FILLER_0_4_121