*SPEF "ieee 1481-1999"
*DESIGN "tt_um_simplepiano"
*DATE "11:11:11 Fri 11 11, 1111"
*VENDOR "OpenRCX"
*PROGRAM "Parallel Extraction"
*VERSION "1.0"
*DESIGN_FLOW "NAME_SCOPE LOCAL" "PIN_CAP NONE"
*DIVIDER /
*DELIMITER :
*BUS_DELIMITER []
*T_UNIT 1 NS
*C_UNIT 1 PF
*R_UNIT 1 OHM
*L_UNIT 1 HENRY

*NAME_MAP
*3 clk
*4 ena
*5 rst_n
*6 ui_in[0]
*7 ui_in[1]
*8 ui_in[2]
*9 ui_in[3]
*10 ui_in[4]
*11 ui_in[5]
*12 ui_in[6]
*13 ui_in[7]
*14 uio_in[0]
*15 uio_in[1]
*16 uio_in[2]
*17 uio_in[3]
*18 uio_in[4]
*19 uio_in[5]
*20 uio_in[6]
*21 uio_in[7]
*22 net19
*23 net20
*24 net21
*25 net22
*26 net23
*27 net24
*28 net25
*29 net26
*30 net27
*31 net28
*32 net29
*33 net30
*34 net31
*35 net32
*36 net33
*37 net34
*38 uo_out[0]
*39 uo_out[1]
*40 uo_out[2]
*41 uo_out[3]
*42 uo_out[4]
*43 uo_out[5]
*44 uo_out[6]
*45 uo_out[7]
*46 _0000_
*47 _0001_
*48 _0002_
*49 _0003_
*50 _0004_
*51 _0005_
*52 _0006_
*53 _0007_
*54 _0008_
*55 _0009_
*56 _0010_
*57 _0011_
*58 _0012_
*59 _0013_
*60 _0014_
*61 _0015_
*62 _0016_
*63 _0017_
*64 _0018_
*65 _0019_
*66 _0020_
*67 _0021_
*68 _0022_
*69 _0023_
*70 _0024_
*71 _0025_
*72 _0026_
*73 _0027_
*74 _0028_
*75 _0029_
*76 _0030_
*77 _0031_
*78 _0032_
*79 _0033_
*80 _0034_
*81 _0035_
*82 _0036_
*83 _0037_
*84 _0038_
*85 _0039_
*86 _0040_
*87 _0041_
*88 _0042_
*89 _0043_
*90 _0044_
*91 _0045_
*92 _0046_
*93 _0047_
*94 _0048_
*95 _0049_
*96 _0050_
*97 _0051_
*98 _0052_
*99 _0053_
*100 _0054_
*101 _0055_
*102 _0056_
*103 _0057_
*104 _0058_
*105 _0059_
*106 _0060_
*107 _0061_
*108 _0062_
*109 _0063_
*110 _0064_
*111 _0065_
*112 _0066_
*113 _0067_
*114 _0068_
*115 _0069_
*116 _0070_
*117 _0071_
*118 _0072_
*119 _0073_
*120 _0074_
*121 _0075_
*122 _0076_
*123 _0077_
*124 _0078_
*125 _0079_
*126 _0080_
*127 _0081_
*128 _0082_
*129 _0083_
*130 _0084_
*131 _0085_
*132 _0086_
*133 _0087_
*134 _0088_
*135 _0089_
*136 _0090_
*137 _0091_
*138 _0092_
*139 _0093_
*140 _0094_
*141 _0095_
*142 _0096_
*143 _0097_
*144 _0098_
*145 _0099_
*146 _0100_
*147 _0101_
*148 _0102_
*149 _0103_
*150 _0104_
*151 _0105_
*152 _0106_
*153 _0107_
*154 _0108_
*155 _0109_
*156 _0110_
*157 _0111_
*158 _0112_
*159 _0113_
*160 _0114_
*161 _0115_
*162 _0116_
*163 _0117_
*164 _0118_
*165 _0119_
*166 _0120_
*167 _0121_
*168 _0122_
*169 _0123_
*170 _0124_
*171 _0125_
*172 _0126_
*173 _0127_
*174 _0128_
*175 _0129_
*176 _0130_
*177 _0131_
*178 _0132_
*179 _0133_
*180 _0134_
*181 _0135_
*182 _0136_
*183 _0137_
*184 _0138_
*185 _0139_
*186 _0140_
*187 _0141_
*188 _0142_
*189 _0143_
*190 _0144_
*191 _0145_
*192 _0146_
*193 _0147_
*194 _0148_
*195 _0149_
*196 _0150_
*197 _0151_
*198 _0152_
*199 _0153_
*200 _0154_
*201 _0155_
*202 _0156_
*203 _0157_
*204 _0158_
*205 _0159_
*206 _0160_
*207 _0161_
*208 _0162_
*209 _0163_
*210 _0164_
*211 _0165_
*212 _0166_
*213 _0167_
*214 _0168_
*215 _0169_
*216 _0170_
*217 _0171_
*218 _0172_
*219 _0173_
*220 _0174_
*221 _0175_
*222 _0176_
*223 _0177_
*224 _0178_
*225 _0179_
*226 _0180_
*227 _0181_
*228 _0182_
*229 _0183_
*230 _0184_
*231 _0185_
*232 _0186_
*233 _0187_
*234 _0188_
*235 _0189_
*236 _0190_
*237 _0191_
*238 _0192_
*239 _0193_
*240 _0194_
*241 _0195_
*242 _0196_
*243 _0197_
*244 _0198_
*245 _0199_
*246 _0200_
*247 _0201_
*248 _0202_
*249 _0203_
*250 _0204_
*251 _0205_
*252 _0206_
*253 _0207_
*254 _0208_
*255 _0209_
*256 _0210_
*257 _0211_
*258 _0212_
*259 _0213_
*260 _0214_
*261 _0215_
*262 _0216_
*263 _0217_
*264 _0218_
*265 _0219_
*266 _0220_
*267 _0221_
*268 _0222_
*269 _0223_
*270 _0224_
*271 _0225_
*272 _0226_
*273 _0227_
*274 _0228_
*275 _0229_
*276 _0230_
*277 _0231_
*278 _0232_
*279 _0233_
*280 _0234_
*281 _0235_
*282 _0236_
*283 _0237_
*284 _0238_
*285 _0239_
*286 _0240_
*287 _0241_
*288 _0242_
*289 _0243_
*290 _0244_
*291 _0245_
*292 _0246_
*293 _0247_
*294 _0248_
*295 _0249_
*296 _0250_
*297 _0251_
*298 _0252_
*299 _0253_
*300 _0254_
*301 _0255_
*302 _0256_
*303 _0257_
*304 _0258_
*305 _0259_
*306 _0260_
*307 _0261_
*308 _0262_
*309 _0263_
*310 _0264_
*311 _0265_
*312 _0266_
*313 _0267_
*314 _0268_
*315 _0269_
*316 _0270_
*317 _0271_
*318 _0272_
*319 _0273_
*320 _0274_
*321 _0275_
*322 _0276_
*323 _0277_
*324 _0278_
*325 _0279_
*326 _0280_
*327 _0281_
*328 _0282_
*329 _0283_
*330 _0284_
*331 _0285_
*332 _0286_
*333 _0287_
*334 _0288_
*335 _0289_
*336 _0290_
*337 _0291_
*338 _0292_
*339 _0293_
*340 _0294_
*341 _0295_
*342 _0296_
*343 _0297_
*344 _0298_
*345 _0299_
*346 _0300_
*347 _0301_
*348 _0302_
*349 _0303_
*350 _0304_
*351 _0305_
*352 _0306_
*353 _0307_
*354 _0308_
*355 _0309_
*356 _0310_
*357 _0311_
*358 _0312_
*359 _0313_
*360 _0314_
*361 _0315_
*362 _0316_
*363 _0317_
*364 _0318_
*365 _0319_
*366 _0320_
*367 _0321_
*368 _0322_
*369 _0323_
*370 _0324_
*371 _0325_
*372 _0326_
*373 _0327_
*374 _0328_
*375 _0329_
*376 _0330_
*377 _0331_
*378 _0332_
*379 _0333_
*380 _0334_
*381 _0335_
*382 _0336_
*383 _0337_
*384 _0338_
*385 _0339_
*386 _0340_
*387 _0341_
*388 _0342_
*389 _0343_
*390 _0344_
*391 _0345_
*392 _0346_
*393 _0347_
*394 _0348_
*395 _0349_
*396 _0350_
*397 _0351_
*398 _0352_
*399 _0353_
*400 _0354_
*401 _0355_
*402 _0356_
*403 _0357_
*404 _0358_
*405 _0359_
*406 _0360_
*407 _0361_
*408 _0362_
*409 _0363_
*410 _0364_
*411 _0365_
*412 _0366_
*413 _0367_
*414 _0368_
*415 _0369_
*416 _0370_
*417 _0371_
*418 _0372_
*419 _0373_
*420 _0374_
*421 _0375_
*422 _0376_
*423 _0377_
*424 _0378_
*425 _0379_
*426 _0380_
*427 _0381_
*428 _0382_
*429 _0383_
*430 _0384_
*431 _0385_
*432 _0386_
*433 _0387_
*434 _0388_
*435 _0389_
*436 _0390_
*437 _0391_
*438 _0392_
*439 _0393_
*440 _0394_
*441 _0395_
*442 _0396_
*443 _0397_
*444 _0398_
*445 _0399_
*446 _0400_
*447 _0401_
*448 _0402_
*449 _0403_
*450 _0404_
*451 _0405_
*452 _0406_
*453 _0407_
*454 _0408_
*455 _0409_
*456 _0410_
*457 _0411_
*458 _0412_
*459 _0413_
*460 _0414_
*461 _0415_
*462 _0416_
*463 _0417_
*464 _0418_
*465 _0419_
*466 _0420_
*467 _0421_
*468 _0422_
*469 _0423_
*470 _0424_
*471 _0425_
*472 _0426_
*473 _0427_
*474 _0428_
*475 _0429_
*476 _0430_
*477 _0431_
*478 _0432_
*479 _0433_
*480 _0434_
*481 _0435_
*482 _0436_
*483 _0437_
*484 _0438_
*485 _0439_
*486 _0440_
*487 _0441_
*488 _0442_
*489 _0443_
*490 _0444_
*491 _0445_
*492 _0446_
*493 _0447_
*494 _0448_
*495 _0449_
*496 _0450_
*497 _0451_
*498 _0452_
*499 _0453_
*500 _0454_
*501 _0455_
*502 _0456_
*503 _0457_
*504 _0458_
*505 _0459_
*506 _0460_
*507 _0461_
*508 _0462_
*509 _0463_
*510 _0464_
*511 _0465_
*512 _0466_
*513 _0467_
*514 _0468_
*515 _0469_
*516 _0470_
*517 _0471_
*518 _0472_
*519 _0473_
*520 _0474_
*521 _0475_
*522 _0476_
*523 _0477_
*524 _0478_
*525 _0479_
*526 _0480_
*527 _0481_
*528 _0482_
*529 _0483_
*530 _0484_
*531 _0485_
*532 _0486_
*533 _0487_
*534 _0488_
*535 _0489_
*536 _0490_
*537 _0491_
*538 _0492_
*539 _0493_
*540 _0494_
*541 _0495_
*542 _0496_
*543 _0497_
*544 _0498_
*545 _0499_
*546 _0500_
*547 _0501_
*548 _0502_
*549 _0503_
*550 _0504_
*551 _0505_
*552 _0506_
*553 _0507_
*554 _0508_
*555 _0509_
*556 _0510_
*557 _0511_
*558 _0512_
*559 _0513_
*560 _0514_
*561 _0515_
*562 _0516_
*563 _0517_
*564 _0518_
*565 _0519_
*566 _0520_
*567 _0521_
*568 _0522_
*569 _0523_
*570 _0524_
*571 _0525_
*572 _0526_
*573 _0527_
*574 _0528_
*575 _0529_
*576 _0530_
*577 _0531_
*578 _0532_
*579 _0533_
*580 _0534_
*581 _0535_
*582 _0536_
*583 _0537_
*584 _0538_
*585 _0539_
*586 _0540_
*587 _0541_
*588 _0542_
*589 _0543_
*590 _0544_
*591 _0545_
*592 _0546_
*593 _0547_
*594 _0548_
*595 _0549_
*596 _0550_
*597 _0551_
*598 _0552_
*599 _0553_
*600 _0554_
*601 _0555_
*602 _0556_
*603 _0557_
*604 _0558_
*605 _0559_
*606 _0560_
*607 _0561_
*608 _0562_
*609 _0563_
*610 _0564_
*611 _0565_
*612 _0566_
*613 _0567_
*614 _0568_
*615 _0569_
*616 _0570_
*617 _0571_
*618 _0572_
*619 _0573_
*620 _0574_
*621 _0575_
*622 _0576_
*623 _0577_
*624 _0578_
*625 _0579_
*626 _0580_
*627 _0581_
*628 _0582_
*629 _0583_
*630 _0584_
*631 _0585_
*632 _0586_
*633 _0587_
*634 _0588_
*635 _0589_
*636 _0590_
*637 _0591_
*638 _0592_
*639 _0593_
*640 _0594_
*641 _0595_
*642 _0596_
*643 _0597_
*644 _0598_
*645 _0599_
*646 _0600_
*647 _0601_
*648 _0602_
*649 _0603_
*650 _0604_
*651 _0605_
*652 _0606_
*653 _0607_
*654 _0608_
*655 _0609_
*656 _0610_
*657 _0611_
*658 _0612_
*659 _0613_
*660 _0614_
*661 _0615_
*662 _0616_
*663 _0617_
*664 _0618_
*665 _0619_
*666 _0620_
*667 _0621_
*668 _0622_
*669 _0623_
*670 _0624_
*671 _0625_
*672 _0626_
*673 _0627_
*674 _0628_
*675 _0629_
*676 _0630_
*677 _0631_
*678 _0632_
*679 _0633_
*680 _0634_
*681 _0635_
*682 _0636_
*683 _0637_
*684 _0638_
*685 _0639_
*686 _0640_
*687 _0641_
*688 _0642_
*689 _0643_
*690 _0644_
*691 _0645_
*692 _0646_
*693 _0647_
*694 _0648_
*695 _0649_
*696 _0650_
*697 _0651_
*698 _0652_
*699 _0653_
*700 clknet_0_clk
*701 clknet_4_0_0_clk
*702 clknet_4_10_0_clk
*703 clknet_4_11_0_clk
*704 clknet_4_12_0_clk
*705 clknet_4_13_0_clk
*706 clknet_4_14_0_clk
*707 clknet_4_15_0_clk
*708 clknet_4_1_0_clk
*709 clknet_4_2_0_clk
*710 clknet_4_3_0_clk
*711 clknet_4_4_0_clk
*712 clknet_4_5_0_clk
*713 clknet_4_6_0_clk
*714 clknet_4_7_0_clk
*715 clknet_4_8_0_clk
*716 clknet_4_9_0_clk
*717 i_led_bar\.led\[0\]
*718 i_led_bar\.led\[1\]
*719 i_led_bar\.led\[2\]
*720 i_led_bar\.led\[3\]
*721 i_led_bar\.led\[4\]
*722 i_led_bar\.led\[5\]
*723 i_led_bar\.led\[6\]
*724 i_led_bar\.new_level\[0\]
*725 i_led_bar\.new_level\[1\]
*726 i_led_bar\.new_level\[2\]
*727 i_led_bar\.prev_level\[0\]
*728 i_led_bar\.prev_level\[1\]
*729 i_led_bar\.prev_level\[2\]
*730 i_led_bar\.prev_note\[0\]
*731 i_led_bar\.prev_note\[1\]
*732 i_led_bar\.prev_note\[2\]
*733 i_led_bar\.prev_note\[3\]
*734 i_led_bar\.tick_counter\[0\]
*735 i_led_bar\.tick_counter\[10\]
*736 i_led_bar\.tick_counter\[11\]
*737 i_led_bar\.tick_counter\[12\]
*738 i_led_bar\.tick_counter\[13\]
*739 i_led_bar\.tick_counter\[14\]
*740 i_led_bar\.tick_counter\[15\]
*741 i_led_bar\.tick_counter\[16\]
*742 i_led_bar\.tick_counter\[17\]
*743 i_led_bar\.tick_counter\[18\]
*744 i_led_bar\.tick_counter\[19\]
*745 i_led_bar\.tick_counter\[1\]
*746 i_led_bar\.tick_counter\[2\]
*747 i_led_bar\.tick_counter\[3\]
*748 i_led_bar\.tick_counter\[4\]
*749 i_led_bar\.tick_counter\[5\]
*750 i_led_bar\.tick_counter\[6\]
*751 i_led_bar\.tick_counter\[7\]
*752 i_led_bar\.tick_counter\[8\]
*753 i_led_bar\.tick_counter\[9\]
*754 net1
*755 net10
*756 net100
*757 net101
*758 net102
*759 net103
*760 net104
*761 net105
*762 net11
*763 net12
*764 net13
*765 net14
*766 net15
*767 net16
*768 net17
*769 net18
*770 net2
*771 net3
*772 net35
*773 net36
*774 net37
*775 net38
*776 net39
*777 net4
*778 net40
*779 net41
*780 net42
*781 net43
*782 net44
*783 net45
*784 net46
*785 net47
*786 net48
*787 net49
*788 net5
*789 net50
*790 net51
*791 net52
*792 net53
*793 net54
*794 net55
*795 net56
*796 net57
*797 net58
*798 net59
*799 net6
*800 net60
*801 net61
*802 net62
*803 net63
*804 net64
*805 net65
*806 net66
*807 net67
*808 net68
*809 net69
*810 net7
*811 net70
*812 net71
*813 net72
*814 net73
*815 net74
*816 net75
*817 net76
*818 net77
*819 net78
*820 net79
*821 net8
*822 net80
*823 net81
*824 net82
*825 net83
*826 net84
*827 net85
*828 net86
*829 net87
*830 net88
*831 net89
*832 net9
*833 net90
*834 net91
*835 net92
*836 net93
*837 net94
*838 net95
*839 net96
*840 net97
*841 net98
*842 net99
*843 note_encoded\[0\]
*844 note_encoded\[1\]
*845 note_encoded\[2\]
*846 note_encoded\[3\]
*847 note_lut_dut\.div\[0\]
*848 note_lut_dut\.div\[10\]
*849 note_lut_dut\.div\[11\]
*850 note_lut_dut\.div\[12\]
*851 note_lut_dut\.div\[13\]
*852 note_lut_dut\.div\[14\]
*853 note_lut_dut\.div\[1\]
*854 note_lut_dut\.div\[2\]
*855 note_lut_dut\.div\[3\]
*856 note_lut_dut\.div\[4\]
*857 note_lut_dut\.div\[5\]
*858 note_lut_dut\.div\[6\]
*859 note_lut_dut\.div\[7\]
*860 note_lut_dut\.div\[8\]
*861 note_lut_dut\.div\[9\]
*862 note_lut_dut\.div_pre\[0\]
*863 note_lut_dut\.div_pre\[10\]
*864 note_lut_dut\.div_pre\[11\]
*865 note_lut_dut\.div_pre\[12\]
*866 note_lut_dut\.div_pre\[13\]
*867 note_lut_dut\.div_pre\[14\]
*868 note_lut_dut\.div_pre\[1\]
*869 note_lut_dut\.div_pre\[2\]
*870 note_lut_dut\.div_pre\[3\]
*871 note_lut_dut\.div_pre\[4\]
*872 note_lut_dut\.div_pre\[5\]
*873 note_lut_dut\.div_pre\[6\]
*874 note_lut_dut\.div_pre\[7\]
*875 note_lut_dut\.div_pre\[8\]
*876 note_lut_dut\.div_pre\[9\]
*877 rtttl_sequencer_dut\.address\[0\]
*878 rtttl_sequencer_dut\.address\[1\]
*879 rtttl_sequencer_dut\.address\[2\]
*880 rtttl_sequencer_dut\.address\[3\]
*881 rtttl_sequencer_dut\.address\[4\]
*882 rtttl_sequencer_dut\.address\[5\]
*883 rtttl_sequencer_dut\.address\[6\]
*884 rtttl_sequencer_dut\.address\[7\]
*885 rtttl_sequencer_dut\.in_demo
*886 rtttl_sequencer_dut\.note\[0\]
*887 rtttl_sequencer_dut\.note\[1\]
*888 rtttl_sequencer_dut\.note\[2\]
*889 rtttl_sequencer_dut\.note\[3\]
*890 rtttl_sequencer_dut\.note_counter\[0\]
*891 rtttl_sequencer_dut\.note_counter\[1\]
*892 rtttl_sequencer_dut\.note_counter\[2\]
*893 rtttl_sequencer_dut\.note_counter\[3\]
*894 rtttl_sequencer_dut\.note_counter\[4\]
*895 rtttl_sequencer_dut\.note_counter\[5\]
*896 rtttl_sequencer_dut\.octave\[0\]
*897 rtttl_sequencer_dut\.octave\[2\]
*898 rtttl_sequencer_dut\.sixf_counter\[0\]
*899 rtttl_sequencer_dut\.sixf_counter\[10\]
*900 rtttl_sequencer_dut\.sixf_counter\[11\]
*901 rtttl_sequencer_dut\.sixf_counter\[12\]
*902 rtttl_sequencer_dut\.sixf_counter\[13\]
*903 rtttl_sequencer_dut\.sixf_counter\[14\]
*904 rtttl_sequencer_dut\.sixf_counter\[15\]
*905 rtttl_sequencer_dut\.sixf_counter\[1\]
*906 rtttl_sequencer_dut\.sixf_counter\[2\]
*907 rtttl_sequencer_dut\.sixf_counter\[3\]
*908 rtttl_sequencer_dut\.sixf_counter\[4\]
*909 rtttl_sequencer_dut\.sixf_counter\[5\]
*910 rtttl_sequencer_dut\.sixf_counter\[6\]
*911 rtttl_sequencer_dut\.sixf_counter\[7\]
*912 rtttl_sequencer_dut\.sixf_counter\[8\]
*913 rtttl_sequencer_dut\.sixf_counter\[9\]
*914 tone_gen_1\.count\[0\]
*915 tone_gen_1\.count\[10\]
*916 tone_gen_1\.count\[11\]
*917 tone_gen_1\.count\[12\]
*918 tone_gen_1\.count\[13\]
*919 tone_gen_1\.count\[14\]
*920 tone_gen_1\.count\[15\]
*921 tone_gen_1\.count\[1\]
*922 tone_gen_1\.count\[2\]
*923 tone_gen_1\.count\[3\]
*924 tone_gen_1\.count\[4\]
*925 tone_gen_1\.count\[5\]
*926 tone_gen_1\.count\[6\]
*927 tone_gen_1\.count\[7\]
*928 tone_gen_1\.count\[8\]
*929 tone_gen_1\.count\[9\]
*930 tone_gen_1\.div_hold\[0\]
*931 tone_gen_1\.div_hold\[10\]
*932 tone_gen_1\.div_hold\[11\]
*933 tone_gen_1\.div_hold\[12\]
*934 tone_gen_1\.div_hold\[13\]
*935 tone_gen_1\.div_hold\[14\]
*936 tone_gen_1\.div_hold\[1\]
*937 tone_gen_1\.div_hold\[2\]
*938 tone_gen_1\.div_hold\[3\]
*939 tone_gen_1\.div_hold\[4\]
*940 tone_gen_1\.div_hold\[5\]
*941 tone_gen_1\.div_hold\[6\]
*942 tone_gen_1\.div_hold\[7\]
*943 tone_gen_1\.div_hold\[8\]
*944 tone_gen_1\.div_hold\[9\]
*945 tone_gen_1\.tone
*946 FILLER_0_0_109
*947 FILLER_0_0_113
*948 FILLER_0_0_125
*949 FILLER_0_0_137
*950 FILLER_0_0_141
*951 FILLER_0_0_15
*952 FILLER_0_0_153
*953 FILLER_0_0_165
*954 FILLER_0_0_169
*955 FILLER_0_0_181
*956 FILLER_0_0_193
*957 FILLER_0_0_197
*958 FILLER_0_0_209
*959 FILLER_0_0_221
*960 FILLER_0_0_225
*961 FILLER_0_0_237
*962 FILLER_0_0_249
*963 FILLER_0_0_253
*964 FILLER_0_0_265
*965 FILLER_0_0_27
*966 FILLER_0_0_277
*967 FILLER_0_0_281
*968 FILLER_0_0_29
*969 FILLER_0_0_293
*970 FILLER_0_0_3
*971 FILLER_0_0_305
*972 FILLER_0_0_309
*973 FILLER_0_0_321
*974 FILLER_0_0_333
*975 FILLER_0_0_337
*976 FILLER_0_0_349
*977 FILLER_0_0_41
*978 FILLER_0_0_53
*979 FILLER_0_0_57
*980 FILLER_0_0_69
*981 FILLER_0_0_81
*982 FILLER_0_0_85
*983 FILLER_0_0_97
*984 FILLER_0_10_101
*985 FILLER_0_10_110
*986 FILLER_0_10_119
*987 FILLER_0_10_131
*988 FILLER_0_10_15
*989 FILLER_0_10_157
*990 FILLER_0_10_164
*991 FILLER_0_10_172
*992 FILLER_0_10_176
*993 FILLER_0_10_188
*994 FILLER_0_10_197
*995 FILLER_0_10_209
*996 FILLER_0_10_220
*997 FILLER_0_10_232
*998 FILLER_0_10_244
*999 FILLER_0_10_253
*1000 FILLER_0_10_265
*1001 FILLER_0_10_27
*1002 FILLER_0_10_277
*1003 FILLER_0_10_285
*1004 FILLER_0_10_29
*1005 FILLER_0_10_298
*1006 FILLER_0_10_3
*1007 FILLER_0_10_306
*1008 FILLER_0_10_309
*1009 FILLER_0_10_319
*1010 FILLER_0_10_345
*1011 FILLER_0_10_41
*1012 FILLER_0_10_53
*1013 FILLER_0_10_65
*1014 FILLER_0_10_69
*1015 FILLER_0_10_75
*1016 FILLER_0_10_83
*1017 FILLER_0_11_110
*1018 FILLER_0_11_122
*1019 FILLER_0_11_130
*1020 FILLER_0_11_138
*1021 FILLER_0_11_142
*1022 FILLER_0_11_15
*1023 FILLER_0_11_150
*1024 FILLER_0_11_156
*1025 FILLER_0_11_169
*1026 FILLER_0_11_196
*1027 FILLER_0_11_205
*1028 FILLER_0_11_217
*1029 FILLER_0_11_223
*1030 FILLER_0_11_236
*1031 FILLER_0_11_253
*1032 FILLER_0_11_257
*1033 FILLER_0_11_27
*1034 FILLER_0_11_277
*1035 FILLER_0_11_289
*1036 FILLER_0_11_3
*1037 FILLER_0_11_300
*1038 FILLER_0_11_321
*1039 FILLER_0_11_334
*1040 FILLER_0_11_340
*1041 FILLER_0_11_348
*1042 FILLER_0_11_39
*1043 FILLER_0_11_51
*1044 FILLER_0_11_55
*1045 FILLER_0_11_57
*1046 FILLER_0_11_63
*1047 FILLER_0_11_83
*1048 FILLER_0_11_91
*1049 FILLER_0_12_136
*1050 FILLER_0_12_141
*1051 FILLER_0_12_15
*1052 FILLER_0_12_169
*1053 FILLER_0_12_181
*1054 FILLER_0_12_193
*1055 FILLER_0_12_197
*1056 FILLER_0_12_218
*1057 FILLER_0_12_230
*1058 FILLER_0_12_236
*1059 FILLER_0_12_251
*1060 FILLER_0_12_261
*1061 FILLER_0_12_27
*1062 FILLER_0_12_280
*1063 FILLER_0_12_29
*1064 FILLER_0_12_292
*1065 FILLER_0_12_3
*1066 FILLER_0_12_320
*1067 FILLER_0_12_326
*1068 FILLER_0_12_41
*1069 FILLER_0_12_53
*1070 FILLER_0_12_61
*1071 FILLER_0_12_66
*1072 FILLER_0_12_78
*1073 FILLER_0_12_97
*1074 FILLER_0_13_106
*1075 FILLER_0_13_113
*1076 FILLER_0_13_136
*1077 FILLER_0_13_148
*1078 FILLER_0_13_15
*1079 FILLER_0_13_160
*1080 FILLER_0_13_199
*1081 FILLER_0_13_208
*1082 FILLER_0_13_220
*1083 FILLER_0_13_225
*1084 FILLER_0_13_242
*1085 FILLER_0_13_259
*1086 FILLER_0_13_27
*1087 FILLER_0_13_275
*1088 FILLER_0_13_279
*1089 FILLER_0_13_289
*1090 FILLER_0_13_296
*1091 FILLER_0_13_3
*1092 FILLER_0_13_321
*1093 FILLER_0_13_333
*1094 FILLER_0_13_340
*1095 FILLER_0_13_348
*1096 FILLER_0_13_39
*1097 FILLER_0_13_51
*1098 FILLER_0_13_55
*1099 FILLER_0_13_57
*1100 FILLER_0_13_82
*1101 FILLER_0_13_94
*1102 FILLER_0_14_112
*1103 FILLER_0_14_132
*1104 FILLER_0_14_15
*1105 FILLER_0_14_164
*1106 FILLER_0_14_177
*1107 FILLER_0_14_181
*1108 FILLER_0_14_190
*1109 FILLER_0_14_197
*1110 FILLER_0_14_206
*1111 FILLER_0_14_223
*1112 FILLER_0_14_227
*1113 FILLER_0_14_235
*1114 FILLER_0_14_249
*1115 FILLER_0_14_253
*1116 FILLER_0_14_265
*1117 FILLER_0_14_27
*1118 FILLER_0_14_277
*1119 FILLER_0_14_285
*1120 FILLER_0_14_29
*1121 FILLER_0_14_292
*1122 FILLER_0_14_3
*1123 FILLER_0_14_301
*1124 FILLER_0_14_307
*1125 FILLER_0_14_317
*1126 FILLER_0_14_334
*1127 FILLER_0_14_41
*1128 FILLER_0_14_53
*1129 FILLER_0_14_61
*1130 FILLER_0_14_77
*1131 FILLER_0_14_85
*1132 FILLER_0_14_89
*1133 FILLER_0_15_100
*1134 FILLER_0_15_113
*1135 FILLER_0_15_122
*1136 FILLER_0_15_130
*1137 FILLER_0_15_136
*1138 FILLER_0_15_146
*1139 FILLER_0_15_15
*1140 FILLER_0_15_152
*1141 FILLER_0_15_156
*1142 FILLER_0_15_194
*1143 FILLER_0_15_203
*1144 FILLER_0_15_211
*1145 FILLER_0_15_223
*1146 FILLER_0_15_236
*1147 FILLER_0_15_244
*1148 FILLER_0_15_262
*1149 FILLER_0_15_267
*1150 FILLER_0_15_27
*1151 FILLER_0_15_275
*1152 FILLER_0_15_279
*1153 FILLER_0_15_281
*1154 FILLER_0_15_291
*1155 FILLER_0_15_3
*1156 FILLER_0_15_303
*1157 FILLER_0_15_309
*1158 FILLER_0_15_323
*1159 FILLER_0_15_327
*1160 FILLER_0_15_333
*1161 FILLER_0_15_340
*1162 FILLER_0_15_348
*1163 FILLER_0_15_39
*1164 FILLER_0_15_51
*1165 FILLER_0_15_55
*1166 FILLER_0_15_57
*1167 FILLER_0_15_65
*1168 FILLER_0_15_82
*1169 FILLER_0_15_90
*1170 FILLER_0_16_113
*1171 FILLER_0_16_117
*1172 FILLER_0_16_149
*1173 FILLER_0_16_15
*1174 FILLER_0_16_168
*1175 FILLER_0_16_180
*1176 FILLER_0_16_188
*1177 FILLER_0_16_215
*1178 FILLER_0_16_253
*1179 FILLER_0_16_27
*1180 FILLER_0_16_285
*1181 FILLER_0_16_29
*1182 FILLER_0_16_3
*1183 FILLER_0_16_302
*1184 FILLER_0_16_309
*1185 FILLER_0_16_316
*1186 FILLER_0_16_324
*1187 FILLER_0_16_334
*1188 FILLER_0_16_41
*1189 FILLER_0_16_53
*1190 FILLER_0_16_78
*1191 FILLER_0_16_85
*1192 FILLER_0_17_102
*1193 FILLER_0_17_110
*1194 FILLER_0_17_113
*1195 FILLER_0_17_125
*1196 FILLER_0_17_137
*1197 FILLER_0_17_149
*1198 FILLER_0_17_15
*1199 FILLER_0_17_161
*1200 FILLER_0_17_167
*1201 FILLER_0_17_169
*1202 FILLER_0_17_203
*1203 FILLER_0_17_207
*1204 FILLER_0_17_225
*1205 FILLER_0_17_237
*1206 FILLER_0_17_259
*1207 FILLER_0_17_263
*1208 FILLER_0_17_27
*1209 FILLER_0_17_281
*1210 FILLER_0_17_292
*1211 FILLER_0_17_297
*1212 FILLER_0_17_3
*1213 FILLER_0_17_331
*1214 FILLER_0_17_335
*1215 FILLER_0_17_337
*1216 FILLER_0_17_349
*1217 FILLER_0_17_47
*1218 FILLER_0_17_55
*1219 FILLER_0_17_68
*1220 FILLER_0_18_11
*1221 FILLER_0_18_141
*1222 FILLER_0_18_159
*1223 FILLER_0_18_176
*1224 FILLER_0_18_188
*1225 FILLER_0_18_197
*1226 FILLER_0_18_209
*1227 FILLER_0_18_221
*1228 FILLER_0_18_23
*1229 FILLER_0_18_241
*1230 FILLER_0_18_249
*1231 FILLER_0_18_27
*1232 FILLER_0_18_272
*1233 FILLER_0_18_284
*1234 FILLER_0_18_29
*1235 FILLER_0_18_3
*1236 FILLER_0_18_309
*1237 FILLER_0_18_313
*1238 FILLER_0_18_322
*1239 FILLER_0_18_334
*1240 FILLER_0_18_346
*1241 FILLER_0_18_35
*1242 FILLER_0_18_350
*1243 FILLER_0_18_50
*1244 FILLER_0_18_65
*1245 FILLER_0_18_7
*1246 FILLER_0_18_77
*1247 FILLER_0_18_83
*1248 FILLER_0_18_85
*1249 FILLER_0_18_91
*1250 FILLER_0_19_107
*1251 FILLER_0_19_111
*1252 FILLER_0_19_113
*1253 FILLER_0_19_131
*1254 FILLER_0_19_143
*1255 FILLER_0_19_151
*1256 FILLER_0_19_155
*1257 FILLER_0_19_175
*1258 FILLER_0_19_197
*1259 FILLER_0_19_219
*1260 FILLER_0_19_223
*1261 FILLER_0_19_233
*1262 FILLER_0_19_241
*1263 FILLER_0_19_25
*1264 FILLER_0_19_251
*1265 FILLER_0_19_263
*1266 FILLER_0_19_281
*1267 FILLER_0_19_285
*1268 FILLER_0_19_293
*1269 FILLER_0_19_305
*1270 FILLER_0_19_31
*1271 FILLER_0_19_327
*1272 FILLER_0_19_335
*1273 FILLER_0_19_337
*1274 FILLER_0_19_349
*1275 FILLER_0_19_42
*1276 FILLER_0_19_57
*1277 FILLER_0_19_69
*1278 FILLER_0_19_83
*1279 FILLER_0_19_95
*1280 FILLER_0_1_105
*1281 FILLER_0_1_111
*1282 FILLER_0_1_113
*1283 FILLER_0_1_125
*1284 FILLER_0_1_137
*1285 FILLER_0_1_149
*1286 FILLER_0_1_15
*1287 FILLER_0_1_161
*1288 FILLER_0_1_167
*1289 FILLER_0_1_169
*1290 FILLER_0_1_181
*1291 FILLER_0_1_193
*1292 FILLER_0_1_205
*1293 FILLER_0_1_217
*1294 FILLER_0_1_223
*1295 FILLER_0_1_225
*1296 FILLER_0_1_237
*1297 FILLER_0_1_249
*1298 FILLER_0_1_261
*1299 FILLER_0_1_27
*1300 FILLER_0_1_273
*1301 FILLER_0_1_279
*1302 FILLER_0_1_281
*1303 FILLER_0_1_293
*1304 FILLER_0_1_3
*1305 FILLER_0_1_305
*1306 FILLER_0_1_317
*1307 FILLER_0_1_329
*1308 FILLER_0_1_335
*1309 FILLER_0_1_337
*1310 FILLER_0_1_349
*1311 FILLER_0_1_39
*1312 FILLER_0_1_51
*1313 FILLER_0_1_55
*1314 FILLER_0_1_57
*1315 FILLER_0_1_69
*1316 FILLER_0_1_81
*1317 FILLER_0_1_93
*1318 FILLER_0_20_109
*1319 FILLER_0_20_128
*1320 FILLER_0_20_139
*1321 FILLER_0_20_15
*1322 FILLER_0_20_184
*1323 FILLER_0_20_194
*1324 FILLER_0_20_20
*1325 FILLER_0_20_218
*1326 FILLER_0_20_226
*1327 FILLER_0_20_251
*1328 FILLER_0_20_253
*1329 FILLER_0_20_281
*1330 FILLER_0_20_29
*1331 FILLER_0_20_299
*1332 FILLER_0_20_3
*1333 FILLER_0_20_307
*1334 FILLER_0_20_313
*1335 FILLER_0_20_321
*1336 FILLER_0_20_334
*1337 FILLER_0_20_41
*1338 FILLER_0_20_51
*1339 FILLER_0_20_68
*1340 FILLER_0_20_74
*1341 FILLER_0_20_82
*1342 FILLER_0_21_101
*1343 FILLER_0_21_11
*1344 FILLER_0_21_113
*1345 FILLER_0_21_137
*1346 FILLER_0_21_145
*1347 FILLER_0_21_154
*1348 FILLER_0_21_169
*1349 FILLER_0_21_197
*1350 FILLER_0_21_222
*1351 FILLER_0_21_225
*1352 FILLER_0_21_235
*1353 FILLER_0_21_258
*1354 FILLER_0_21_269
*1355 FILLER_0_21_277
*1356 FILLER_0_21_281
*1357 FILLER_0_21_288
*1358 FILLER_0_21_29
*1359 FILLER_0_21_295
*1360 FILLER_0_21_3
*1361 FILLER_0_21_301
*1362 FILLER_0_21_308
*1363 FILLER_0_21_317
*1364 FILLER_0_21_335
*1365 FILLER_0_21_337
*1366 FILLER_0_21_343
*1367 FILLER_0_21_54
*1368 FILLER_0_21_57
*1369 FILLER_0_21_61
*1370 FILLER_0_21_73
*1371 FILLER_0_21_77
*1372 FILLER_0_21_93
*1373 FILLER_0_22_102
*1374 FILLER_0_22_122
*1375 FILLER_0_22_130
*1376 FILLER_0_22_141
*1377 FILLER_0_22_153
*1378 FILLER_0_22_165
*1379 FILLER_0_22_177
*1380 FILLER_0_22_181
*1381 FILLER_0_22_194
*1382 FILLER_0_22_197
*1383 FILLER_0_22_21
*1384 FILLER_0_22_219
*1385 FILLER_0_22_231
*1386 FILLER_0_22_243
*1387 FILLER_0_22_251
*1388 FILLER_0_22_262
*1389 FILLER_0_22_27
*1390 FILLER_0_22_29
*1391 FILLER_0_22_3
*1392 FILLER_0_22_314
*1393 FILLER_0_22_322
*1394 FILLER_0_22_346
*1395 FILLER_0_22_350
*1396 FILLER_0_22_41
*1397 FILLER_0_22_57
*1398 FILLER_0_22_75
*1399 FILLER_0_22_9
*1400 FILLER_0_23_113
*1401 FILLER_0_23_122
*1402 FILLER_0_23_142
*1403 FILLER_0_23_146
*1404 FILLER_0_23_162
*1405 FILLER_0_23_176
*1406 FILLER_0_23_184
*1407 FILLER_0_23_196
*1408 FILLER_0_23_208
*1409 FILLER_0_23_218
*1410 FILLER_0_23_225
*1411 FILLER_0_23_229
*1412 FILLER_0_23_238
*1413 FILLER_0_23_248
*1414 FILLER_0_23_252
*1415 FILLER_0_23_269
*1416 FILLER_0_23_277
*1417 FILLER_0_23_281
*1418 FILLER_0_23_296
*1419 FILLER_0_23_308
*1420 FILLER_0_23_32
*1421 FILLER_0_23_335
*1422 FILLER_0_23_337
*1423 FILLER_0_23_349
*1424 FILLER_0_23_36
*1425 FILLER_0_23_43
*1426 FILLER_0_23_57
*1427 FILLER_0_23_69
*1428 FILLER_0_23_81
*1429 FILLER_0_23_95
*1430 FILLER_0_24_108
*1431 FILLER_0_24_127
*1432 FILLER_0_24_135
*1433 FILLER_0_24_139
*1434 FILLER_0_24_15
*1435 FILLER_0_24_158
*1436 FILLER_0_24_178
*1437 FILLER_0_24_197
*1438 FILLER_0_24_203
*1439 FILLER_0_24_228
*1440 FILLER_0_24_242
*1441 FILLER_0_24_251
*1442 FILLER_0_24_268
*1443 FILLER_0_24_27
*1444 FILLER_0_24_272
*1445 FILLER_0_24_280
*1446 FILLER_0_24_3
*1447 FILLER_0_24_306
*1448 FILLER_0_24_322
*1449 FILLER_0_24_350
*1450 FILLER_0_24_37
*1451 FILLER_0_24_45
*1452 FILLER_0_24_57
*1453 FILLER_0_25_113
*1454 FILLER_0_25_119
*1455 FILLER_0_25_137
*1456 FILLER_0_25_166
*1457 FILLER_0_25_169
*1458 FILLER_0_25_189
*1459 FILLER_0_25_201
*1460 FILLER_0_25_213
*1461 FILLER_0_25_221
*1462 FILLER_0_25_239
*1463 FILLER_0_25_253
*1464 FILLER_0_25_262
*1465 FILLER_0_25_27
*1466 FILLER_0_25_281
*1467 FILLER_0_25_293
*1468 FILLER_0_25_3
*1469 FILLER_0_25_305
*1470 FILLER_0_25_31
*1471 FILLER_0_25_330
*1472 FILLER_0_25_345
*1473 FILLER_0_25_54
*1474 FILLER_0_25_69
*1475 FILLER_0_25_81
*1476 FILLER_0_25_93
*1477 FILLER_0_26_104
*1478 FILLER_0_26_116
*1479 FILLER_0_26_128
*1480 FILLER_0_26_141
*1481 FILLER_0_26_15
*1482 FILLER_0_26_153
*1483 FILLER_0_26_162
*1484 FILLER_0_26_174
*1485 FILLER_0_26_186
*1486 FILLER_0_26_19
*1487 FILLER_0_26_194
*1488 FILLER_0_26_244
*1489 FILLER_0_26_266
*1490 FILLER_0_26_270
*1491 FILLER_0_26_280
*1492 FILLER_0_26_29
*1493 FILLER_0_26_298
*1494 FILLER_0_26_3
*1495 FILLER_0_26_304
*1496 FILLER_0_26_315
*1497 FILLER_0_26_350
*1498 FILLER_0_26_41
*1499 FILLER_0_26_50
*1500 FILLER_0_26_62
*1501 FILLER_0_26_74
*1502 FILLER_0_26_82
*1503 FILLER_0_27_113
*1504 FILLER_0_27_125
*1505 FILLER_0_27_129
*1506 FILLER_0_27_136
*1507 FILLER_0_27_140
*1508 FILLER_0_27_149
*1509 FILLER_0_27_161
*1510 FILLER_0_27_167
*1511 FILLER_0_27_169
*1512 FILLER_0_27_179
*1513 FILLER_0_27_191
*1514 FILLER_0_27_20
*1515 FILLER_0_27_200
*1516 FILLER_0_27_214
*1517 FILLER_0_27_222
*1518 FILLER_0_27_233
*1519 FILLER_0_27_245
*1520 FILLER_0_27_254
*1521 FILLER_0_27_27
*1522 FILLER_0_27_278
*1523 FILLER_0_27_281
*1524 FILLER_0_27_290
*1525 FILLER_0_27_3
*1526 FILLER_0_27_304
*1527 FILLER_0_27_308
*1528 FILLER_0_27_319
*1529 FILLER_0_27_327
*1530 FILLER_0_27_333
*1531 FILLER_0_27_342
*1532 FILLER_0_27_350
*1533 FILLER_0_27_38
*1534 FILLER_0_27_51
*1535 FILLER_0_27_73
*1536 FILLER_0_27_87
*1537 FILLER_0_28_101
*1538 FILLER_0_28_113
*1539 FILLER_0_28_126
*1540 FILLER_0_28_15
*1541 FILLER_0_28_150
*1542 FILLER_0_28_168
*1543 FILLER_0_28_177
*1544 FILLER_0_28_181
*1545 FILLER_0_28_197
*1546 FILLER_0_28_204
*1547 FILLER_0_28_215
*1548 FILLER_0_28_23
*1549 FILLER_0_28_234
*1550 FILLER_0_28_251
*1551 FILLER_0_28_269
*1552 FILLER_0_28_273
*1553 FILLER_0_28_299
*1554 FILLER_0_28_3
*1555 FILLER_0_28_307
*1556 FILLER_0_28_320
*1557 FILLER_0_28_348
*1558 FILLER_0_28_37
*1559 FILLER_0_28_49
*1560 FILLER_0_28_61
*1561 FILLER_0_28_80
*1562 FILLER_0_28_85
*1563 FILLER_0_29_106
*1564 FILLER_0_29_113
*1565 FILLER_0_29_120
*1566 FILLER_0_29_128
*1567 FILLER_0_29_143
*1568 FILLER_0_29_147
*1569 FILLER_0_29_159
*1570 FILLER_0_29_165
*1571 FILLER_0_29_169
*1572 FILLER_0_29_175
*1573 FILLER_0_29_179
*1574 FILLER_0_29_19
*1575 FILLER_0_29_191
*1576 FILLER_0_29_197
*1577 FILLER_0_29_209
*1578 FILLER_0_29_216
*1579 FILLER_0_29_220
*1580 FILLER_0_29_225
*1581 FILLER_0_29_247
*1582 FILLER_0_29_268
*1583 FILLER_0_29_272
*1584 FILLER_0_29_276
*1585 FILLER_0_29_281
*1586 FILLER_0_29_290
*1587 FILLER_0_29_294
*1588 FILLER_0_29_300
*1589 FILLER_0_29_308
*1590 FILLER_0_29_323
*1591 FILLER_0_29_335
*1592 FILLER_0_29_342
*1593 FILLER_0_29_350
*1594 FILLER_0_29_38
*1595 FILLER_0_29_46
*1596 FILLER_0_29_76
*1597 FILLER_0_2_109
*1598 FILLER_0_2_121
*1599 FILLER_0_2_133
*1600 FILLER_0_2_137
*1601 FILLER_0_2_141
*1602 FILLER_0_2_15
*1603 FILLER_0_2_153
*1604 FILLER_0_2_165
*1605 FILLER_0_2_177
*1606 FILLER_0_2_189
*1607 FILLER_0_2_195
*1608 FILLER_0_2_197
*1609 FILLER_0_2_209
*1610 FILLER_0_2_214
*1611 FILLER_0_2_226
*1612 FILLER_0_2_238
*1613 FILLER_0_2_250
*1614 FILLER_0_2_253
*1615 FILLER_0_2_265
*1616 FILLER_0_2_27
*1617 FILLER_0_2_277
*1618 FILLER_0_2_289
*1619 FILLER_0_2_29
*1620 FILLER_0_2_3
*1621 FILLER_0_2_301
*1622 FILLER_0_2_307
*1623 FILLER_0_2_309
*1624 FILLER_0_2_321
*1625 FILLER_0_2_333
*1626 FILLER_0_2_345
*1627 FILLER_0_2_41
*1628 FILLER_0_2_53
*1629 FILLER_0_2_65
*1630 FILLER_0_2_77
*1631 FILLER_0_2_83
*1632 FILLER_0_2_85
*1633 FILLER_0_2_97
*1634 FILLER_0_30_105
*1635 FILLER_0_30_15
*1636 FILLER_0_30_174
*1637 FILLER_0_30_189
*1638 FILLER_0_30_195
*1639 FILLER_0_30_203
*1640 FILLER_0_30_209
*1641 FILLER_0_30_215
*1642 FILLER_0_30_238
*1643 FILLER_0_30_27
*1644 FILLER_0_30_285
*1645 FILLER_0_30_3
*1646 FILLER_0_30_300
*1647 FILLER_0_30_33
*1648 FILLER_0_30_334
*1649 FILLER_0_30_340
*1650 FILLER_0_30_347
*1651 FILLER_0_30_49
*1652 FILLER_0_30_63
*1653 FILLER_0_30_71
*1654 FILLER_0_30_77
*1655 FILLER_0_30_83
*1656 FILLER_0_30_93
*1657 FILLER_0_31_113
*1658 FILLER_0_31_125
*1659 FILLER_0_31_132
*1660 FILLER_0_31_144
*1661 FILLER_0_31_156
*1662 FILLER_0_31_176