*SPEF "ieee 1481-1999"
*DESIGN "tt_um_simplepiano"
*DATE "11:11:11 Fri 11 11, 1111"
*VENDOR "OpenRCX"
*PROGRAM "Parallel Extraction"
*VERSION "1.0"
*DESIGN_FLOW "NAME_SCOPE LOCAL" "PIN_CAP NONE"
*DIVIDER /
*DELIMITER :
*BUS_DELIMITER []
*T_UNIT 1 NS
*C_UNIT 1 PF
*R_UNIT 1 OHM
*L_UNIT 1 HENRY

*NAME_MAP
*3 clk
*4 ena
*5 rst_n
*6 ui_in[0]
*7 ui_in[1]
*8 ui_in[2]
*9 ui_in[3]
*10 ui_in[4]
*11 ui_in[5]
*12 ui_in[6]
*13 ui_in[7]
*14 uio_in[0]
*15 uio_in[1]
*16 uio_in[2]
*17 uio_in[3]
*18 uio_in[4]
*19 uio_in[5]
*20 uio_in[6]
*21 uio_in[7]
*22 net19
*23 net20
*24 net21
*25 net22
*26 net23
*27 net24
*28 net25
*29 net26
*30 net27
*31 net28
*32 net29
*33 net30
*34 net31
*35 net32
*36 net33
*37 net34
*38 uo_out[0]
*39 uo_out[1]
*40 uo_out[2]
*41 uo_out[3]
*42 uo_out[4]
*43 uo_out[5]
*44 uo_out[6]
*45 uo_out[7]
*46 _0000_
*47 _0001_
*48 _0002_
*49 _0003_
*50 _0004_
*51 _0005_
*52 _0006_
*53 _0007_
*54 _0008_
*55 _0009_
*56 _0010_
*57 _0011_
*58 _0012_
*59 _0013_
*60 _0014_
*61 _0015_
*62 _0016_
*63 _0017_
*64 _0018_
*65 _0019_
*66 _0020_
*67 _0021_
*68 _0022_
*69 _0023_
*70 _0024_
*71 _0025_
*72 _0026_
*73 _0027_
*74 _0028_
*75 _0029_
*76 _0030_
*77 _0031_
*78 _0032_
*79 _0033_
*80 _0034_
*81 _0035_
*82 _0036_
*83 _0037_
*84 _0038_
*85 _0039_
*86 _0040_
*87 _0041_
*88 _0042_
*89 _0043_
*90 _0044_
*91 _0045_
*92 _0046_
*93 _0047_
*94 _0048_
*95 _0049_
*96 _0050_
*97 _0051_
*98 _0052_
*99 _0053_
*100 _0054_
*101 _0055_
*102 _0056_
*103 _0057_
*104 _0058_
*105 _0059_
*106 _0060_
*107 _0061_
*108 _0062_
*109 _0063_
*110 _0064_
*111 _0065_
*112 _0066_
*113 _0067_
*114 _0068_
*115 _0069_
*116 _0070_
*117 _0071_
*118 _0072_
*119 _0073_
*120 _0074_
*121 _0075_
*122 _0076_
*123 _0077_
*124 _0078_
*125 _0079_
*126 _0080_
*127 _0081_
*128 _0082_
*129 _0083_
*130 _0084_
*131 _0085_
*132 _0086_
*133 _0087_
*134 _0088_
*135 _0089_
*136 _0090_
*137 _0091_
*138 _0092_
*139 _0093_
*140 _0094_
*141 _0095_
*142 _0096_
*143 _0097_
*144 _0098_
*145 _0099_
*146 _0100_
*147 _0101_
*148 _0102_
*149 _0103_
*150 _0104_
*151 _0105_
*152 _0106_
*153 _0107_
*154 _0108_
*155 _0109_
*156 _0110_
*157 _0111_
*158 _0112_
*159 _0113_
*160 _0114_
*161 _0115_
*162 _0116_
*163 _0117_
*164 _0118_
*165 _0119_
*166 _0120_
*167 _0121_
*168 _0122_
*169 _0123_
*170 _0124_
*171 _0125_
*172 _0126_
*173 _0127_
*174 _0128_
*175 _0129_
*176 _0130_
*177 _0131_
*178 _0132_
*179 _0133_
*180 _0134_
*181 _0135_
*182 _0136_
*183 _0137_
*184 _0138_
*185 _0139_
*186 _0140_
*187 _0141_
*188 _0142_
*189 _0143_
*190 _0144_
*191 _0145_
*192 _0146_
*193 _0147_
*194 _0148_
*195 _0149_
*196 _0150_
*197 _0151_
*198 _0152_
*199 _0153_
*200 _0154_
*201 _0155_
*202 _0156_
*203 _0157_
*204 _0158_
*205 _0159_
*206 _0160_
*207 _0161_
*208 _0162_
*209 _0163_
*210 _0164_
*211 _0165_
*212 _0166_
*213 _0167_
*214 _0168_
*215 _0169_
*216 _0170_
*217 _0171_
*218 _0172_
*219 _0173_
*220 _0174_
*221 _0175_
*222 _0176_
*223 _0177_
*224 _0178_
*225 _0179_
*226 _0180_
*227 _0181_
*228 _0182_
*229 _0183_
*230 _0184_
*231 _0185_
*232 _0186_
*233 _0187_
*234 _0188_
*235 _0189_
*236 _0190_
*237 _0191_
*238 _0192_
*239 _0193_
*240 _0194_
*241 _0195_
*242 _0196_
*243 _0197_
*244 _0198_
*245 _0199_
*246 _0200_
*247 _0201_
*248 _0202_
*249 _0203_
*250 _0204_
*251 _0205_
*252 _0206_
*253 _0207_
*254 _0208_
*255 _0209_
*256 _0210_
*257 _0211_
*258 _0212_
*259 _0213_
*260 _0214_
*261 _0215_
*262 _0216_
*263 _0217_
*264 _0218_
*265 _0219_
*266 _0220_
*267 _0221_
*268 _0222_
*269 _0223_
*270 _0224_
*271 _0225_
*272 _0226_
*273 _0227_
*274 _0228_
*275 _0229_
*276 _0230_
*277 _0231_
*278 _0232_
*279 _0233_
*280 _0234_
*281 _0235_
*282 _0236_
*283 _0237_
*284 _0238_
*285 _0239_
*286 _0240_
*287 _0241_
*288 _0242_
*289 _0243_
*290 _0244_
*291 _0245_
*292 _0246_
*293 _0247_
*294 _0248_
*295 _0249_
*296 _0250_
*297 _0251_
*298 _0252_
*299 _0253_
*300 _0254_
*301 _0255_
*302 _0256_
*303 _0257_
*304 _0258_
*305 _0259_
*306 _0260_
*307 _0261_
*308 _0262_
*309 _0263_
*310 _0264_
*311 _0265_
*312 _0266_
*313 _0267_
*314 _0268_
*315 _0269_
*316 _0270_
*317 _0271_
*318 _0272_
*319 _0273_
*320 _0274_
*321 _0275_
*322 _0276_
*323 _0277_
*324 _0278_
*325 _0279_
*326 _0280_
*327 _0281_
*328 _0282_
*329 _0283_
*330 _0284_
*331 _0285_
*332 _0286_
*333 _0287_
*334 _0288_
*335 _0289_
*336 _0290_
*337 _0291_
*338 _0292_
*339 _0293_
*340 _0294_
*341 _0295_
*342 _0296_
*343 _0297_
*344 _0298_
*345 _0299_
*346 _0300_
*347 _0301_
*348 _0302_
*349 _0303_
*350 _0304_
*351 _0305_
*352 _0306_
*353 _0307_
*354 _0308_
*355 _0309_
*356 _0310_
*357 _0311_
*358 _0312_
*359 _0313_
*360 _0314_
*361 _0315_
*362 _0316_
*363 _0317_
*364 _0318_
*365 _0319_
*366 _0320_
*367 _0321_
*368 _0322_
*369 _0323_
*370 _0324_
*371 _0325_
*372 _0326_
*373 _0327_
*374 _0328_
*375 _0329_
*376 _0330_
*377 _0331_
*378 _0332_
*379 _0333_
*380 _0334_
*381 _0335_
*382 _0336_
*383 _0337_
*384 _0338_
*385 _0339_
*386 _0340_
*387 _0341_
*388 _0342_
*389 _0343_
*390 _0344_
*391 _0345_
*392 _0346_
*393 _0347_
*394 _0348_
*395 _0349_
*396 _0350_
*397 _0351_
*398 _0352_
*399 _0353_
*400 _0354_
*401 _0355_
*402 _0356_
*403 _0357_
*404 _0358_
*405 _0359_
*406 _0360_
*407 _0361_
*408 _0362_
*409 _0363_
*410 _0364_
*411 _0365_
*412 _0366_
*413 _0367_
*414 _0368_
*415 _0369_
*416 _0370_
*417 _0371_
*418 _0372_
*419 _0373_
*420 _0374_
*421 _0375_
*422 _0376_
*423 _0377_
*424 _0378_
*425 _0379_
*426 _0380_
*427 _0381_
*428 _0382_
*429 _0383_
*430 _0384_
*431 _0385_
*432 _0386_
*433 _0387_
*434 _0388_
*435 _0389_
*436 _0390_
*437 _0391_
*438 _0392_
*439 _0393_
*440 _0394_
*441 _0395_
*442 _0396_
*443 _0397_
*444 _0398_
*445 _0399_
*446 _0400_
*447 _0401_
*448 _0402_
*449 _0403_
*450 _0404_
*451 _0405_
*452 _0406_
*453 _0407_
*454 _0408_
*455 _0409_
*456 _0410_
*457 _0411_
*458 _0412_
*459 _0413_
*460 _0414_
*461 _0415_
*462 _0416_
*463 _0417_
*464 _0418_
*465 _0419_
*466 _0420_
*467 _0421_
*468 _0422_
*469 _0423_
*470 _0424_
*471 _0425_
*472 _0426_
*473 _0427_
*474 _0428_
*475 _0429_
*476 _0430_
*477 _0431_
*478 _0432_
*479 _0433_
*480 _0434_
*481 _0435_
*482 _0436_
*483 _0437_
*484 _0438_
*485 _0439_
*486 _0440_
*487 _0441_
*488 _0442_
*489 _0443_
*490 _0444_
*491 _0445_
*492 _0446_
*493 _0447_
*494 _0448_
*495 _0449_
*496 _0450_
*497 _0451_
*498 _0452_
*499 _0453_
*500 _0454_
*501 _0455_
*502 _0456_
*503 _0457_
*504 _0458_
*505 _0459_
*506 _0460_
*507 _0461_
*508 _0462_
*509 _0463_
*510 _0464_
*511 _0465_
*512 _0466_
*513 _0467_
*514 _0468_
*515 _0469_
*516 _0470_
*517 _0471_
*518 _0472_
*519 _0473_
*520 _0474_
*521 _0475_
*522 _0476_
*523 _0477_
*524 _0478_
*525 _0479_
*526 _0480_
*527 _0481_
*528 _0482_
*529 _0483_
*530 _0484_
*531 _0485_
*532 _0486_
*533 _0487_
*534 _0488_
*535 _0489_
*536 _0490_
*537 _0491_
*538 _0492_
*539 _0493_
*540 _0494_
*541 _0495_
*542 _0496_
*543 _0497_
*544 _0498_
*545 _0499_
*546 _0500_
*547 _0501_
*548 _0502_
*549 _0503_
*550 _0504_
*551 _0505_
*552 _0506_
*553 _0507_
*554 _0508_
*555 _0509_
*556 _0510_
*557 _0511_
*558 _0512_
*559 _0513_
*560 _0514_
*561 _0515_
*562 _0516_
*563 _0517_
*564 _0518_
*565 _0519_
*566 _0520_
*567 _0521_
*568 _0522_
*569 _0523_
*570 _0524_
*571 _0525_
*572 _0526_
*573 _0527_
*574 _0528_
*575 _0529_
*576 _0530_
*577 _0531_
*578 _0532_
*579 _0533_
*580 _0534_
*581 _0535_
*582 _0536_
*583 _0537_
*584 _0538_
*585 _0539_
*586 _0540_
*587 _0541_
*588 _0542_
*589 _0543_
*590 _0544_
*591 _0545_
*592 _0546_
*593 _0547_
*594 _0548_
*595 _0549_
*596 _0550_
*597 _0551_
*598 _0552_
*599 _0553_
*600 _0554_
*601 _0555_
*602 _0556_
*603 _0557_
*604 _0558_
*605 _0559_
*606 _0560_
*607 _0561_
*608 _0562_
*609 _0563_
*610 _0564_
*611 _0565_
*612 _0566_
*613 _0567_
*614 _0568_
*615 _0569_
*616 _0570_
*617 _0571_
*618 _0572_
*619 _0573_
*620 _0574_
*621 _0575_
*622 _0576_
*623 _0577_
*624 _0578_
*625 _0579_
*626 _0580_
*627 _0581_
*628 _0582_
*629 _0583_
*630 _0584_
*631 _0585_
*632 _0586_
*633 _0587_
*634 _0588_
*635 _0589_
*636 _0590_
*637 _0591_
*638 _0592_
*639 _0593_
*640 _0594_
*641 _0595_
*642 _0596_
*643 _0597_
*644 _0598_
*645 _0599_
*646 _0600_
*647 _0601_
*648 _0602_
*649 _0603_
*650 _0604_
*651 _0605_
*652 _0606_
*653 _0607_
*654 _0608_
*655 _0609_
*656 _0610_
*657 _0611_
*658 _0612_
*659 _0613_
*660 _0614_
*661 _0615_
*662 _0616_
*663 _0617_
*664 _0618_
*665 _0619_
*666 _0620_
*667 _0621_
*668 _0622_
*669 _0623_
*670 _0624_
*671 _0625_
*672 _0626_
*673 _0627_
*674 _0628_
*675 _0629_
*676 _0630_
*677 _0631_
*678 _0632_
*679 _0633_
*680 _0634_
*681 _0635_
*682 _0636_
*683 _0637_
*684 _0638_
*685 _0639_
*686 _0640_
*687 _0641_
*688 _0642_
*689 _0643_
*690 _0644_
*691 _0645_
*692 _0646_
*693 _0647_
*694 _0648_
*695 _0649_
*696 _0650_
*697 _0651_
*698 _0652_
*699 _0653_
*700 _0654_
*701 _0655_
*702 _0656_
*703 _0657_
*704 _0658_
*705 _0659_
*706 _0660_
*707 _0661_
*708 _0662_
*709 _0663_
*710 _0664_
*711 _0665_
*712 _0666_
*713 _0667_
*714 _0668_
*715 _0669_
*716 _0670_
*717 _0671_
*718 _0672_
*719 _0673_
*720 _0674_
*721 _0675_
*722 _0676_
*723 _0677_
*724 _0678_
*725 _0679_
*726 _0680_
*727 _0681_
*728 _0682_
*729 _0683_
*730 _0684_
*731 _0685_
*732 _0686_
*733 _0687_
*734 _0688_
*735 _0689_
*736 _0690_
*737 _0691_
*738 _0692_
*739 _0693_
*740 _0694_
*741 _0695_
*742 _0696_
*743 _0697_
*744 _0698_
*745 _0699_
*746 _0700_
*747 _0701_
*748 _0702_
*749 _0703_
*750 _0704_
*751 _0705_
*752 _0706_
*753 _0707_
*754 _0708_
*755 _0709_
*756 _0710_
*757 _0711_
*758 _0712_
*759 _0713_
*760 _0714_
*761 _0715_
*762 _0716_
*763 _0717_
*764 _0718_
*765 _0719_
*766 _0720_
*767 _0721_
*768 _0722_
*769 _0723_
*770 _0724_
*771 _0725_
*772 _0726_
*773 _0727_
*774 _0728_
*775 _0729_
*776 _0730_
*777 _0731_
*778 _0732_
*779 _0733_
*780 _0734_
*781 _0735_
*782 _0736_
*783 _0737_
*784 _0738_
*785 _0739_
*786 _0740_
*787 _0741_
*788 _0742_
*789 _0743_
*790 _0744_
*791 _0745_
*792 _0746_
*793 _0747_
*794 _0748_
*795 _0749_
*796 _0750_
*797 _0751_
*798 _0752_
*799 _0753_
*800 _0754_
*801 _0755_
*802 _0756_
*803 _0757_
*804 _0758_
*805 _0759_
*806 _0760_
*807 _0761_
*808 _0762_
*809 _0763_
*810 _0764_
*811 _0765_
*812 _0766_
*813 _0767_
*814 _0768_
*815 _0769_
*816 _0770_
*817 _0771_
*818 _0772_
*819 _0773_
*820 _0774_
*821 _0775_
*822 _0776_
*823 _0777_
*824 clknet_0_clk
*825 clknet_4_0_0_clk
*826 clknet_4_10_0_clk
*827 clknet_4_11_0_clk
*828 clknet_4_12_0_clk
*829 clknet_4_13_0_clk
*830 clknet_4_14_0_clk
*831 clknet_4_15_0_clk
*832 clknet_4_1_0_clk
*833 clknet_4_2_0_clk
*834 clknet_4_3_0_clk
*835 clknet_4_4_0_clk
*836 clknet_4_5_0_clk
*837 clknet_4_6_0_clk
*838 clknet_4_7_0_clk
*839 clknet_4_8_0_clk
*840 clknet_4_9_0_clk
*841 i_led_bar\.led\[0\]
*842 i_led_bar\.led\[1\]
*843 i_led_bar\.led\[2\]
*844 i_led_bar\.led\[3\]
*845 i_led_bar\.led\[4\]
*846 i_led_bar\.led\[5\]
*847 i_led_bar\.led\[6\]
*848 i_led_bar\.new_level\[0\]
*849 i_led_bar\.new_level\[1\]
*850 i_led_bar\.new_level\[2\]
*851 i_led_bar\.prev_level\[0\]
*852 i_led_bar\.prev_level\[1\]
*853 i_led_bar\.prev_level\[2\]
*854 i_led_bar\.prev_note\[0\]
*855 i_led_bar\.prev_note\[1\]
*856 i_led_bar\.prev_note\[2\]
*857 i_led_bar\.prev_note\[3\]
*858 i_led_bar\.tick_counter\[0\]
*859 i_led_bar\.tick_counter\[10\]
*860 i_led_bar\.tick_counter\[11\]
*861 i_led_bar\.tick_counter\[12\]
*862 i_led_bar\.tick_counter\[13\]
*863 i_led_bar\.tick_counter\[14\]
*864 i_led_bar\.tick_counter\[15\]
*865 i_led_bar\.tick_counter\[16\]
*866 i_led_bar\.tick_counter\[17\]
*867 i_led_bar\.tick_counter\[18\]
*868 i_led_bar\.tick_counter\[19\]
*869 i_led_bar\.tick_counter\[1\]
*870 i_led_bar\.tick_counter\[2\]
*871 i_led_bar\.tick_counter\[3\]
*872 i_led_bar\.tick_counter\[4\]
*873 i_led_bar\.tick_counter\[5\]
*874 i_led_bar\.tick_counter\[6\]
*875 i_led_bar\.tick_counter\[7\]
*876 i_led_bar\.tick_counter\[8\]
*877 i_led_bar\.tick_counter\[9\]
*878 net1
*879 net10
*880 net100
*881 net101
*882 net102
*883 net103
*884 net104
*885 net11
*886 net12
*887 net13
*888 net14
*889 net15
*890 net16
*891 net17
*892 net18
*893 net2
*894 net3
*895 net35
*896 net36
*897 net37
*898 net38
*899 net39
*900 net4
*901 net40
*902 net41
*903 net42
*904 net43
*905 net44
*906 net45
*907 net46
*908 net47
*909 net48
*910 net49
*911 net5
*912 net50
*913 net51
*914 net52
*915 net53
*916 net54
*917 net55
*918 net56
*919 net57
*920 net58
*921 net59
*922 net6
*923 net60
*924 net61
*925 net62
*926 net63
*927 net64
*928 net65
*929 net66
*930 net67
*931 net68
*932 net69
*933 net7
*934 net70
*935 net71
*936 net72
*937 net73
*938 net74
*939 net75
*940 net76
*941 net77
*942 net78
*943 net79
*944 net8
*945 net80
*946 net81
*947 net82
*948 net83
*949 net84
*950 net85
*951 net86
*952 net87
*953 net88
*954 net89
*955 net9
*956 net90
*957 net91
*958 net92
*959 net93
*960 net94
*961 net95
*962 net96
*963 net97
*964 net98
*965 net99
*966 note_encoded\[0\]
*967 note_encoded\[1\]
*968 note_encoded\[2\]
*969 note_encoded\[3\]
*970 note_lut_dut\.div\[0\]
*971 note_lut_dut\.div\[10\]
*972 note_lut_dut\.div\[11\]
*973 note_lut_dut\.div\[12\]
*974 note_lut_dut\.div\[13\]
*975 note_lut_dut\.div\[14\]
*976 note_lut_dut\.div\[1\]
*977 note_lut_dut\.div\[2\]
*978 note_lut_dut\.div\[3\]
*979 note_lut_dut\.div\[4\]
*980 note_lut_dut\.div\[5\]
*981 note_lut_dut\.div\[6\]
*982 note_lut_dut\.div\[7\]
*983 note_lut_dut\.div\[8\]
*984 note_lut_dut\.div\[9\]
*985 note_lut_dut\.div_pre\[0\]
*986 note_lut_dut\.div_pre\[10\]
*987 note_lut_dut\.div_pre\[11\]
*988 note_lut_dut\.div_pre\[12\]
*989 note_lut_dut\.div_pre\[13\]
*990 note_lut_dut\.div_pre\[14\]
*991 note_lut_dut\.div_pre\[1\]
*992 note_lut_dut\.div_pre\[2\]
*993 note_lut_dut\.div_pre\[3\]
*994 note_lut_dut\.div_pre\[4\]
*995 note_lut_dut\.div_pre\[5\]
*996 note_lut_dut\.div_pre\[6\]
*997 note_lut_dut\.div_pre\[7\]
*998 note_lut_dut\.div_pre\[8\]
*999 note_lut_dut\.div_pre\[9\]
*1000 rtttl_sequencer_dut\.address\[0\]
*1001 rtttl_sequencer_dut\.address\[1\]
*1002 rtttl_sequencer_dut\.address\[2\]
*1003 rtttl_sequencer_dut\.address\[3\]
*1004 rtttl_sequencer_dut\.address\[4\]
*1005 rtttl_sequencer_dut\.address\[5\]
*1006 rtttl_sequencer_dut\.address\[6\]
*1007 rtttl_sequencer_dut\.address\[7\]
*1008 rtttl_sequencer_dut\.in_demo
*1009 rtttl_sequencer_dut\.note\[0\]
*1010 rtttl_sequencer_dut\.note\[1\]
*1011 rtttl_sequencer_dut\.note\[2\]
*1012 rtttl_sequencer_dut\.note\[3\]
*1013 rtttl_sequencer_dut\.note_counter\[0\]
*1014 rtttl_sequencer_dut\.note_counter\[1\]
*1015 rtttl_sequencer_dut\.note_counter\[2\]
*1016 rtttl_sequencer_dut\.note_counter\[3\]
*1017 rtttl_sequencer_dut\.note_counter\[4\]
*1018 rtttl_sequencer_dut\.note_counter\[5\]
*1019 rtttl_sequencer_dut\.octave\[0\]
*1020 rtttl_sequencer_dut\.octave\[1\]
*1021 rtttl_sequencer_dut\.octave\[2\]
*1022 rtttl_sequencer_dut\.sixf_counter\[0\]
*1023 rtttl_sequencer_dut\.sixf_counter\[10\]
*1024 rtttl_sequencer_dut\.sixf_counter\[11\]
*1025 rtttl_sequencer_dut\.sixf_counter\[12\]
*1026 rtttl_sequencer_dut\.sixf_counter\[13\]
*1027 rtttl_sequencer_dut\.sixf_counter\[14\]
*1028 rtttl_sequencer_dut\.sixf_counter\[15\]
*1029 rtttl_sequencer_dut\.sixf_counter\[1\]
*1030 rtttl_sequencer_dut\.sixf_counter\[2\]
*1031 rtttl_sequencer_dut\.sixf_counter\[3\]
*1032 rtttl_sequencer_dut\.sixf_counter\[4\]
*1033 rtttl_sequencer_dut\.sixf_counter\[5\]
*1034 rtttl_sequencer_dut\.sixf_counter\[6\]
*1035 rtttl_sequencer_dut\.sixf_counter\[7\]
*1036 rtttl_sequencer_dut\.sixf_counter\[8\]
*1037 rtttl_sequencer_dut\.sixf_counter\[9\]
*1038 rtttl_sequencer_dut\.which_demo
*1039 tone_gen_1\.count\[0\]
*1040 tone_gen_1\.count\[10\]
*1041 tone_gen_1\.count\[11\]
*1042 tone_gen_1\.count\[12\]
*1043 tone_gen_1\.count\[13\]
*1044 tone_gen_1\.count\[14\]
*1045 tone_gen_1\.count\[15\]
*1046 tone_gen_1\.count\[1\]
*1047 tone_gen_1\.count\[2\]
*1048 tone_gen_1\.count\[3\]
*1049 tone_gen_1\.count\[4\]
*1050 tone_gen_1\.count\[5\]
*1051 tone_gen_1\.count\[6\]
*1052 tone_gen_1\.count\[7\]
*1053 tone_gen_1\.count\[8\]
*1054 tone_gen_1\.count\[9\]
*1055 tone_gen_1\.div_hold\[0\]
*1056 tone_gen_1\.div_hold\[10\]
*1057 tone_gen_1\.div_hold\[11\]
*1058 tone_gen_1\.div_hold\[12\]
*1059 tone_gen_1\.div_hold\[13\]
*1060 tone_gen_1\.div_hold\[14\]
*1061 tone_gen_1\.div_hold\[1\]
*1062 tone_gen_1\.div_hold\[2\]
*1063 tone_gen_1\.div_hold\[3\]
*1064 tone_gen_1\.div_hold\[4\]
*1065 tone_gen_1\.div_hold\[5\]
*1066 tone_gen_1\.div_hold\[6\]
*1067 tone_gen_1\.div_hold\[7\]
*1068 tone_gen_1\.div_hold\[8\]
*1069 tone_gen_1\.div_hold\[9\]
*1070 tone_gen_1\.tone
*1071 FILLER_0_0_109
*1072 FILLER_0_0_113
*1073 FILLER_0_0_135
*1074 FILLER_0_0_139
*1075 FILLER_0_0_141
*1076 FILLER_0_0_15
*1077 FILLER_0_0_153
*1078 FILLER_0_0_165
*1079 FILLER_0_0_169
*1080 FILLER_0_0_181
*1081 FILLER_0_0_193
*1082 FILLER_0_0_197
*1083 FILLER_0_0_209
*1084 FILLER_0_0_221
*1085 FILLER_0_0_225
*1086 FILLER_0_0_237
*1087 FILLER_0_0_249
*1088 FILLER_0_0_253
*1089 FILLER_0_0_265
*1090 FILLER_0_0_27
*1091 FILLER_0_0_277
*1092 FILLER_0_0_281
*1093 FILLER_0_0_29
*1094 FILLER_0_0_293
*1095 FILLER_0_0_3
*1096 FILLER_0_0_305
*1097 FILLER_0_0_309
*1098 FILLER_0_0_321
*1099 FILLER_0_0_333
*1100 FILLER_0_0_337
*1101 FILLER_0_0_349
*1102 FILLER_0_0_41
*1103 FILLER_0_0_53
*1104 FILLER_0_0_57
*1105 FILLER_0_0_78
*1106 FILLER_0_0_83
*1107 FILLER_0_0_85
*1108 FILLER_0_0_97
*1109 FILLER_0_10_105
*1110 FILLER_0_10_117
*1111 FILLER_0_10_132
*1112 FILLER_0_10_139
*1113 FILLER_0_10_150
*1114 FILLER_0_10_162
*1115 FILLER_0_10_176
*1116 FILLER_0_10_188
*1117 FILLER_0_10_206
*1118 FILLER_0_10_212
*1119 FILLER_0_10_220
*1120 FILLER_0_10_228
*1121 FILLER_0_10_245
*1122 FILLER_0_10_251
*1123 FILLER_0_10_253
*1124 FILLER_0_10_265
*1125 FILLER_0_10_271
*1126 FILLER_0_10_295
*1127 FILLER_0_10_3
*1128 FILLER_0_10_307
*1129 FILLER_0_10_309
*1130 FILLER_0_10_315
*1131 FILLER_0_10_339
*1132 FILLER_0_10_53
*1133 FILLER_0_10_65
*1134 FILLER_0_10_74
*1135 FILLER_0_10_82
*1136 FILLER_0_10_85
*1137 FILLER_0_11_111
*1138 FILLER_0_11_140
*1139 FILLER_0_11_15
*1140 FILLER_0_11_158
*1141 FILLER_0_11_169
*1142 FILLER_0_11_185
*1143 FILLER_0_11_209
*1144 FILLER_0_11_225
*1145 FILLER_0_11_23
*1146 FILLER_0_11_244
*1147 FILLER_0_11_256
*1148 FILLER_0_11_273
*1149 FILLER_0_11_279
*1150 FILLER_0_11_298
*1151 FILLER_0_11_3
*1152 FILLER_0_11_30
*1153 FILLER_0_11_337
*1154 FILLER_0_11_349
*1155 FILLER_0_11_41
*1156 FILLER_0_11_53
*1157 FILLER_0_11_57
*1158 FILLER_0_11_84
*1159 FILLER_0_12_121
*1160 FILLER_0_12_135
*1161 FILLER_0_12_139
*1162 FILLER_0_12_177
*1163 FILLER_0_12_185
*1164 FILLER_0_12_194
*1165 FILLER_0_12_213
*1166 FILLER_0_12_228
*1167 FILLER_0_12_239
*1168 FILLER_0_12_273
*1169 FILLER_0_12_285
*1170 FILLER_0_12_3
*1171 FILLER_0_12_305
*1172 FILLER_0_12_309
*1173 FILLER_0_12_346
*1174 FILLER_0_12_350
*1175 FILLER_0_12_48
*1176 FILLER_0_12_56
*1177 FILLER_0_12_85
*1178 FILLER_0_13_113
*1179 FILLER_0_13_130
*1180 FILLER_0_13_139
*1181 FILLER_0_13_147
*1182 FILLER_0_13_158
*1183 FILLER_0_13_162
*1184 FILLER_0_13_166
*1185 FILLER_0_13_169
*1186 FILLER_0_13_181
*1187 FILLER_0_13_193
*1188 FILLER_0_13_201
*1189 FILLER_0_13_210
*1190 FILLER_0_13_218
*1191 FILLER_0_13_246
*1192 FILLER_0_13_267
*1193 FILLER_0_13_279
*1194 FILLER_0_13_281
*1195 FILLER_0_13_3
*1196 FILLER_0_13_300
*1197 FILLER_0_13_310
*1198 FILLER_0_13_335
*1199 FILLER_0_13_345
*1200 FILLER_0_13_52
*1201 FILLER_0_13_73
*1202 FILLER_0_13_92
*1203 FILLER_0_14_129
*1204 FILLER_0_14_137
*1205 FILLER_0_14_141
*1206 FILLER_0_14_153
*1207 FILLER_0_14_191
*1208 FILLER_0_14_195
*1209 FILLER_0_14_213
*1210 FILLER_0_14_219
*1211 FILLER_0_14_223
*1212 FILLER_0_14_235
*1213 FILLER_0_14_247
*1214 FILLER_0_14_251
*1215 FILLER_0_14_258
*1216 FILLER_0_14_270
*1217 FILLER_0_14_278
*1218 FILLER_0_14_295
*1219 FILLER_0_14_3
*1220 FILLER_0_14_303
*1221 FILLER_0_14_307
*1222 FILLER_0_14_309
*1223 FILLER_0_14_321
*1224 FILLER_0_14_34
*1225 FILLER_0_14_350
*1226 FILLER_0_14_42
*1227 FILLER_0_14_50
*1228 FILLER_0_14_85
*1229 FILLER_0_14_93
*1230 FILLER_0_15_111
*1231 FILLER_0_15_113
*1232 FILLER_0_15_121
*1233 FILLER_0_15_15
*1234 FILLER_0_15_156
*1235 FILLER_0_15_169
*1236 FILLER_0_15_186
*1237 FILLER_0_15_190
*1238 FILLER_0_15_207
*1239 FILLER_0_15_221
*1240 FILLER_0_15_225
*1241 FILLER_0_15_233
*1242 FILLER_0_15_266
*1243 FILLER_0_15_27
*1244 FILLER_0_15_278
*1245 FILLER_0_15_281
*1246 FILLER_0_15_297
*1247 FILLER_0_15_3
*1248 FILLER_0_15_309
*1249 FILLER_0_15_320
*1250 FILLER_0_15_332
*1251 FILLER_0_15_337
*1252 FILLER_0_15_349
*1253 FILLER_0_15_47
*1254 FILLER_0_15_57
*1255 FILLER_0_15_61
*1256 FILLER_0_15_73
*1257 FILLER_0_15_85
*1258 FILLER_0_15_93
*1259 FILLER_0_16_106
*1260 FILLER_0_16_11
*1261 FILLER_0_16_118
*1262 FILLER_0_16_130
*1263 FILLER_0_16_138
*1264 FILLER_0_16_141
*1265 FILLER_0_16_153
*1266 FILLER_0_16_157
*1267 FILLER_0_16_161
*1268 FILLER_0_16_173
*1269 FILLER_0_16_195
*1270 FILLER_0_16_197
*1271 FILLER_0_16_205
*1272 FILLER_0_16_227
*1273 FILLER_0_16_239
*1274 FILLER_0_16_251
*1275 FILLER_0_16_269
*1276 FILLER_0_16_289
*1277 FILLER_0_16_29
*1278 FILLER_0_16_298
*1279 FILLER_0_16_3
*1280 FILLER_0_16_316
*1281 FILLER_0_16_328
*1282 FILLER_0_16_345
*1283 FILLER_0_16_62
*1284 FILLER_0_16_79
*1285 FILLER_0_16_83
*1286 FILLER_0_16_85
*1287 FILLER_0_16_97
*1288 FILLER_0_17_106
*1289 FILLER_0_17_11
*1290 FILLER_0_17_121
*1291 FILLER_0_17_161
*1292 FILLER_0_17_167
*1293 FILLER_0_17_169
*1294 FILLER_0_17_173
*1295 FILLER_0_17_190
*1296 FILLER_0_17_202
*1297 FILLER_0_17_210
*1298 FILLER_0_17_221
*1299 FILLER_0_17_225
*1300 FILLER_0_17_237
*1301 FILLER_0_17_241
*1302 FILLER_0_17_247
*1303 FILLER_0_17_258
*1304 FILLER_0_17_270
*1305 FILLER_0_17_278
*1306 FILLER_0_17_281
*1307 FILLER_0_17_296
*1308 FILLER_0_17_3
*1309 FILLER_0_17_321
*1310 FILLER_0_17_334
*1311 FILLER_0_17_342
*1312 FILLER_0_17_350
*1313 FILLER_0_17_51
*1314 FILLER_0_17_55
*1315 FILLER_0_17_57
*1316 FILLER_0_17_84
*1317 FILLER_0_17_95
*1318 FILLER_0_18_107
*1319 FILLER_0_18_115
*1320 FILLER_0_18_123
*1321 FILLER_0_18_141
*1322 FILLER_0_18_165
*1323 FILLER_0_18_177
*1324 FILLER_0_18_181
*1325 FILLER_0_18_190
*1326 FILLER_0_18_213
*1327 FILLER_0_18_235
*1328 FILLER_0_18_253
*1329 FILLER_0_18_26
*1330 FILLER_0_18_265
*1331 FILLER_0_18_273
*1332 FILLER_0_18_279
*1333 FILLER_0_18_29
*1334 FILLER_0_18_3
*1335 FILLER_0_18_301
*1336 FILLER_0_18_307
*1337 FILLER_0_18_314
*1338 FILLER_0_18_33
*1339 FILLER_0_18_347
*1340 FILLER_0_18_72
*1341 FILLER_0_18_83
*1342 FILLER_0_18_85
*1343 FILLER_0_18_9
*1344 FILLER_0_19_120
*1345 FILLER_0_19_128
*1346 FILLER_0_19_138
*1347 FILLER_0_19_154
*1348 FILLER_0_19_166
*1349 FILLER_0_19_169
*1350 FILLER_0_19_193
*1351 FILLER_0_19_205
*1352 FILLER_0_19_209
*1353 FILLER_0_19_217
*1354 FILLER_0_19_225
*1355 FILLER_0_19_240
*1356 FILLER_0_19_253
*1357 FILLER_0_19_26
*1358 FILLER_0_19_265
*1359 FILLER_0_19_277
*1360 FILLER_0_19_281
*1361 FILLER_0_19_288
*1362 FILLER_0_19_3
*1363 FILLER_0_19_300
*1364 FILLER_0_19_308
*1365 FILLER_0_19_319
*1366 FILLER_0_19_343
*1367 FILLER_0_19_38
*1368 FILLER_0_19_46
*1369 FILLER_0_19_55
*1370 FILLER_0_19_65
*1371 FILLER_0_19_84
*1372 FILLER_0_19_9
*1373 FILLER_0_19_94
*1374 FILLER_0_1_100
*1375 FILLER_0_1_113
*1376 FILLER_0_1_142
*1377 FILLER_0_1_15
*1378 FILLER_0_1_154
*1379 FILLER_0_1_166
*1380 FILLER_0_1_169
*1381 FILLER_0_1_181
*1382 FILLER_0_1_193
*1383 FILLER_0_1_225
*1384 FILLER_0_1_237
*1385 FILLER_0_1_27
*1386 FILLER_0_1_273
*1387 FILLER_0_1_279
*1388 FILLER_0_1_281
*1389 FILLER_0_1_293
*1390 FILLER_0_1_3
*1391 FILLER_0_1_305
*1392 FILLER_0_1_317
*1393 FILLER_0_1_329
*1394 FILLER_0_1_335
*1395 FILLER_0_1_337
*1396 FILLER_0_1_349
*1397 FILLER_0_1_39
*1398 FILLER_0_20_102
*1399 FILLER_0_20_138
*1400 FILLER_0_20_141
*1401 FILLER_0_20_151
*1402 FILLER_0_20_163
*1403 FILLER_0_20_171
*1404 FILLER_0_20_205
*1405 FILLER_0_20_213
*1406 FILLER_0_20_235
*1407 FILLER_0_20_246
*1408 FILLER_0_20_253
*1409 FILLER_0_20_261
*1410 FILLER_0_20_265
*1411 FILLER_0_20_282
*1412 FILLER_0_20_29
*1413 FILLER_0_20_3
*1414 FILLER_0_20_300
*1415 FILLER_0_20_309
*1416 FILLER_0_20_321
*1417 FILLER_0_20_340
*1418 FILLER_0_20_348
*1419 FILLER_0_20_35
*1420 FILLER_0_20_85
*1421 FILLER_0_21_11
*1422 FILLER_0_21_113
*1423 FILLER_0_21_147
*1424 FILLER_0_21_159
*1425 FILLER_0_21_167
*1426 FILLER_0_21_169
*1427 FILLER_0_21_17
*1428 FILLER_0_21_207
*1429 FILLER_0_21_232
*1430 FILLER_0_21_244
*1431 FILLER_0_21_252
*1432 FILLER_0_21_258
*1433 FILLER_0_21_281
*1434 FILLER_0_21_3
*1435 FILLER_0_21_307
*1436 FILLER_0_21_311
*1437 FILLER_0_21_318
*1438 FILLER_0_21_335
*1439 FILLER_0_21_337
*1440 FILLER_0_21_349
*1441 FILLER_0_21_51
*1442 FILLER_0_21_55
*1443 FILLER_0_21_57
*1444 FILLER_0_21_61
*1445 FILLER_0_21_78
*1446 FILLER_0_21_88
*1447 FILLER_0_22_109
*1448 FILLER_0_22_117
*1449 FILLER_0_22_126
*1450 FILLER_0_22_141
*1451 FILLER_0_22_148
*1452 FILLER_0_22_160
*1453 FILLER_0_22_172
*1454 FILLER_0_22_195
*1455 FILLER_0_22_197
*1456 FILLER_0_22_203
*1457 FILLER_0_22_211
*1458 FILLER_0_22_220
*1459 FILLER_0_22_232
*1460 FILLER_0_22_249
*1461 FILLER_0_22_260
*1462 FILLER_0_22_269
*1463 FILLER_0_22_281
*1464 FILLER_0_22_29
*1465 FILLER_0_22_3
*1466 FILLER_0_22_305
*1467 FILLER_0_22_309
*1468 FILLER_0_22_346
*1469 FILLER_0_22_350
*1470 FILLER_0_22_41
*1471 FILLER_0_22_79
*1472 FILLER_0_22_83
*1473 FILLER_0_22_85
*1474 FILLER_0_22_97
*1475 FILLER_0_23_104
*1476 FILLER_0_23_113
*1477 FILLER_0_23_15
*1478 FILLER_0_23_153
*1479 FILLER_0_23_165
*1480 FILLER_0_23_169
*1481 FILLER_0_23_181
*1482 FILLER_0_23_187
*1483 FILLER_0_23_199
*1484 FILLER_0_23_205
*1485 FILLER_0_23_229
*1486 FILLER_0_23_237
*1487 FILLER_0_23_250
*1488 FILLER_0_23_257
*1489 FILLER_0_23_27
*1490 FILLER_0_23_272
*1491 FILLER_0_23_281
*1492 FILLER_0_23_291
*1493 FILLER_0_23_3
*1494 FILLER_0_23_31
*1495 FILLER_0_23_313
*1496 FILLER_0_23_320
*1497 FILLER_0_23_332
*1498 FILLER_0_23_337
*1499 FILLER_0_23_349
*1500 FILLER_0_23_43
*1501 FILLER_0_23_55
*1502 FILLER_0_23_57
*1503 FILLER_0_23_80
*1504 FILLER_0_23_92
*1505 FILLER_0_24_102
*1506 FILLER_0_24_120
*1507 FILLER_0_24_132
*1508 FILLER_0_24_15
*1509 FILLER_0_24_150
*1510 FILLER_0_24_154
*1511 FILLER_0_24_158
*1512 FILLER_0_24_166
*1513 FILLER_0_24_177
*1514 FILLER_0_24_186
*1515 FILLER_0_24_195
*1516 FILLER_0_24_200
*1517 FILLER_0_24_212
*1518 FILLER_0_24_216
*1519 FILLER_0_24_228
*1520 FILLER_0_24_250
*1521 FILLER_0_24_259
*1522 FILLER_0_24_26
*1523 FILLER_0_24_271
*1524 FILLER_0_24_279
*1525 FILLER_0_24_292
*1526 FILLER_0_24_298
*1527 FILLER_0_24_3
*1528 FILLER_0_24_304
*1529 FILLER_0_24_309
*1530 FILLER_0_24_314
*1531 FILLER_0_24_321
*1532 FILLER_0_24_329
*1533 FILLER_0_24_346
*1534 FILLER_0_24_350
*1535 FILLER_0_24_40
*1536 FILLER_0_24_52
*1537 FILLER_0_24_64
*1538 FILLER_0_24_83
*1539 FILLER_0_25_113
*1540 FILLER_0_25_125
*1541 FILLER_0_25_137
*1542 FILLER_0_25_165
*1543 FILLER_0_25_185
*1544 FILLER_0_25_203
*1545 FILLER_0_25_207
*1546 FILLER_0_25_214
*1547 FILLER_0_25_222
*1548 FILLER_0_25_231
*1549 FILLER_0_25_237
*1550 FILLER_0_25_247
*1551 FILLER_0_25_265
*1552 FILLER_0_25_271
*1553 FILLER_0_25_281
*1554 FILLER_0_25_3
*1555 FILLER_0_25_302
*1556 FILLER_0_25_310
*1557 FILLER_0_25_320
*1558 FILLER_0_25_335
*1559 FILLER_0_25_337
*1560 FILLER_0_25_349
*1561 FILLER_0_25_46
*1562 FILLER_0_25_68
*1563 FILLER_0_25_80
*1564 FILLER_0_25_88
*1565 FILLER_0_26_106
*1566 FILLER_0_26_11
*1567 FILLER_0_26_120
*1568 FILLER_0_26_132
*1569 FILLER_0_26_179
*1570 FILLER_0_26_183
*1571 FILLER_0_26_195
*1572 FILLER_0_26_206
*1573 FILLER_0_26_218
*1574 FILLER_0_26_226
*1575 FILLER_0_26_246
*1576 FILLER_0_26_253
*1577 FILLER_0_26_26
*1578 FILLER_0_26_265
*1579 FILLER_0_26_297
*1580 FILLER_0_26_3
*1581 FILLER_0_26_305
*1582 FILLER_0_26_309
*1583 FILLER_0_26_346
*1584 FILLER_0_26_35
*1585 FILLER_0_26_350
*1586 FILLER_0_26_83
*1587 FILLER_0_26_85
*1588 FILLER_0_26_97
*1589 FILLER_0_27_15
*1590 FILLER_0_27_166
*1591 FILLER_0_27_169
*1592 FILLER_0_27_181
*1593 FILLER_0_27_187
*1594 FILLER_0_27_194
*1595 FILLER_0_27_206
*1596 FILLER_0_27_218
*1597 FILLER_0_27_225
*1598 FILLER_0_27_233
*1599 FILLER_0_27_246
*1600 FILLER_0_27_254
*1601 FILLER_0_27_264
*1602 FILLER_0_27_27
*1603 FILLER_0_27_285
*1604 FILLER_0_27_297
*1605 FILLER_0_27_3
*1606 FILLER_0_27_309
*1607 FILLER_0_27_32
*1608 FILLER_0_27_335
*1609 FILLER_0_27_342
*1610 FILLER_0_27_350
*1611 FILLER_0_27_41
*1612 FILLER_0_27_53
*1613 FILLER_0_27_57
*1614 FILLER_0_27_63
*1615 FILLER_0_27_69
*1616 FILLER_0_27_86
*1617 FILLER_0_27_98
*1618 FILLER_0_28_117
*1619 FILLER_0_28_126
*1620 FILLER_0_28_138
*1621 FILLER_0_28_15
*1622 FILLER_0_28_162
*1623 FILLER_0_28_174
*1624 FILLER_0_28_186
*1625 FILLER_0_28_19
*1626 FILLER_0_28_194
*1627 FILLER_0_28_222
*1628 FILLER_0_28_230
*1629 FILLER_0_28_245
*1630 FILLER_0_28_251
*1631 FILLER_0_28_253
*1632 FILLER_0_28_26
*1633 FILLER_0_28_265
*1634 FILLER_0_28_292
*1635 FILLER_0_28_3
*1636 FILLER_0_28_304
*1637 FILLER_0_28_309
*1638 FILLER_0_28_323
*1639 FILLER_0_28_333
*1640 FILLER_0_28_345
*1641 FILLER_0_28_45
*1642 FILLER_0_28_57
*1643 FILLER_0_28_63
*1644 FILLER_0_28_67
*1645 FILLER_0_28_75
*1646 FILLER_0_28_80
*1647 FILLER_0_28_85
*1648 FILLER_0_28_93
*1649 FILLER_0_29_130
*1650 FILLER_0_29_140
*1651 FILLER_0_29_144
*1652 FILLER_0_29_15
*1653 FILLER_0_29_175
*1654 FILLER_0_29_183
*1655 FILLER_0_29_19
*1656 FILLER_0_29_201
*1657 FILLER_0_29_225
*1658 FILLER_0_29_237
*1659 FILLER_0_29_245
*1660 FILLER_0_29_251
*1661 FILLER_0_29_257
*1662 FILLER_0_29_279
*1663 FILLER_0_29_295
*1664 FILLER_0_29_3
*1665 FILLER_0_29_307
*1666 FILLER_0_29_337
*1667 FILLER_0_29_349
*1668 FILLER_0_29_42
*1669 FILLER_0_29_54
*1670 FILLER_0_29_57
*1671 FILLER_0_29_65
*1672 FILLER_0_2_102
*1673 FILLER_0_2_110
*1674 FILLER_0_2_138
*1675 FILLER_0_2_141
*1676 FILLER_0_2_15
*1677 FILLER_0_2_153
*1678 FILLER_0_2_165
*1679 FILLER_0_2_177
*1680 FILLER_0_2_189
*1681 FILLER_0_2_195
*1682 FILLER_0_2_213
*1683 FILLER_0_2_263
*1684 FILLER_0_2_27
*1685 FILLER_0_2_275
*1686 FILLER_0_2_287
*1687 FILLER_0_2_29
*1688 FILLER_0_2_299
*1689 FILLER_0_2_3
*1690 FILLER_0_2_307
*1691 FILLER_0_2_309
*1692 FILLER_0_2_321
*1693 FILLER_0_2_333
*1694 FILLER_0_2_345
*1695 FILLER_0_2_41
*1696 FILLER_0_2_53
*1697 FILLER_0_2_59
*1698 FILLER_0_2_89
*1699 FILLER_0_30_131
*1700 FILLER_0_30_139
*1701 FILLER_0_30_187
*1702 FILLER_0_30_195
*1703 FILLER_0_30_228
*1704 FILLER_0_30_253
*1705 FILLER_0_30_26
*1706 FILLER_0_30_264
*1707 FILLER_0_30_277
*1708 FILLER_0_30_283