*SPEF "ieee 1481-1999"
*DESIGN "tt_um_wokwi_347144898258928211"
*DATE "11:11:11 Fri 11 11, 1111"
*VENDOR "OpenRCX"
*PROGRAM "Parallel Extraction"
*VERSION "1.0"
*DESIGN_FLOW "NAME_SCOPE LOCAL" "PIN_CAP NONE"
*DIVIDER /
*DELIMITER :
*BUS_DELIMITER []
*T_UNIT 1 NS
*C_UNIT 1 PF
*R_UNIT 1 OHM
*L_UNIT 1 HENRY

*NAME_MAP
*1 clk
*2 ena
*3 rst_n
*4 ui_in[0]
*5 ui_in[1]
*6 ui_in[2]
*7 ui_in[3]
*8 ui_in[4]
*9 ui_in[5]
*10 ui_in[6]
*11 ui_in[7]
*12 uio_in[0]
*13 uio_in[1]
*14 uio_in[2]
*15 uio_in[3]
*16 uio_in[4]
*17 uio_in[5]
*18 uio_in[6]
*19 uio_in[7]
*20 net3
*21 net4
*22 net5
*23 net6
*24 net7
*25 net8
*26 net9
*27 net10
*28 net11
*29 net12
*30 net13
*31 net14
*32 net15
*33 net16
*34 net17
*35 net18
*36 uo_out[0]
*37 uo_out[1]
*38 net19
*39 net20
*40 net21
*41 net22
*42 net23
*43 uo_out[7]
*46 _000_
*47 _001_
*48 _002_
*49 _003_
*50 _004_
*51 _005_
*52 _006_
*53 _007_
*54 _008_
*55 _009_
*56 _010_
*57 _011_
*58 _012_
*59 _013_
*60 _014_
*61 _015_
*62 _016_
*63 _017_
*64 _018_
*65 _019_
*66 _020_
*67 _021_
*68 _022_
*69 _023_
*70 _024_
*71 _025_
*72 _026_
*73 _027_
*74 _028_
*75 _029_
*76 _030_
*77 _031_
*78 _032_
*79 _033_
*80 _034_
*81 _035_
*82 _036_
*83 _037_
*84 _038_
*85 _039_
*86 _040_
*87 _041_
*88 _042_
*89 _043_
*90 _044_
*91 _045_
*92 _046_
*93 _047_
*94 _048_
*95 _049_
*96 _050_
*97 _051_
*98 _052_
*99 _053_
*100 _054_
*101 _055_
*102 _056_
*103 _057_
*104 _058_
*105 _059_
*106 _060_
*107 _061_
*108 _062_
*109 _063_
*110 _064_
*111 _065_
*112 _066_
*113 _067_
*114 _068_
*115 _069_
*116 _070_
*117 _071_
*118 _072_
*119 _073_
*120 _074_
*121 _075_
*122 _076_
*123 _077_
*124 _078_
*125 _079_
*126 _080_
*127 _081_
*128 _082_
*129 _083_
*130 _084_
*131 _085_
*132 _086_
*133 _087_
*134 _088_
*135 _089_
*136 _090_
*137 _091_
*138 _092_
*139 _093_
*140 _094_
*141 _095_
*142 _096_
*143 _097_
*144 _098_
*145 _099_
*146 _100_
*147 _101_
*148 _102_
*149 _103_
*150 _104_
*151 _105_
*152 _106_
*153 _107_
*154 _108_
*155 _109_
*156 _110_
*157 _111_
*158 _112_
*159 _113_
*160 _114_
*161 _115_
*162 _116_
*163 _117_
*164 _118_
*165 _119_
*166 _120_
*167 _121_
*168 _122_
*169 _123_
*170 _124_
*171 _125_
*172 _126_
*173 _127_
*174 _128_
*175 _129_
*176 _130_
*177 _131_
*178 _132_
*179 _133_
*180 _134_
*181 _135_
*182 _136_
*183 _137_
*184 _138_
*185 _139_
*186 _140_
*187 _141_
*188 _142_
*189 _143_
*190 _144_
*191 _145_
*192 _146_
*193 _147_
*194 _148_
*195 _149_
*196 _150_
*197 _151_
*198 _152_
*199 _153_
*200 _154_
*201 _155_
*202 _156_
*203 _157_
*204 _158_
*205 _159_
*206 _160_
*207 _161_
*208 _162_
*209 _163_
*210 _164_
*211 _165_
*212 _166_
*213 _167_
*214 _168_
*215 _169_
*216 _170_
*217 _171_
*218 _172_
*219 _173_
*220 _174_
*221 _175_
*222 _176_
*223 _177_
*224 _178_
*225 _179_
*226 _180_
*227 _181_
*228 _182_
*229 _183_
*230 _184_
*231 _185_
*232 _186_
*233 _187_
*234 _188_
*235 _189_
*236 _190_
*237 _191_
*238 _192_
*239 _193_
*240 _194_
*241 _195_
*242 _196_
*243 _197_
*244 _198_
*245 _199_
*246 _200_
*247 _201_
*248 _202_
*249 _203_
*250 _204_
*251 _205_
*252 _206_
*253 _207_
*254 _208_
*255 _209_
*256 _210_
*257 _211_
*258 _212_
*259 _213_
*260 _214_
*261 _215_
*262 _216_
*263 _217_
*264 _218_
*265 _219_
*266 _220_
*267 clknet_0_clk
*268 clknet_3_0__leaf_clk
*269 clknet_3_1__leaf_clk
*270 clknet_3_2__leaf_clk
*271 clknet_3_3__leaf_clk
*272 clknet_3_4__leaf_clk
*273 clknet_3_5__leaf_clk
*274 clknet_3_6__leaf_clk
*275 clknet_3_7__leaf_clk
*276 flop1\.q
*277 flop10\.q
*278 flop100\.q
*279 flop101\.q
*280 flop102\.q
*281 flop103\.q
*282 flop104\.q
*283 flop105\.q
*284 flop11\.q
*285 flop12\.q
*286 flop13\.q
*287 flop14\.q
*288 flop15\.q
*289 flop16\.q
*290 flop17\.q
*291 flop18\.q
*292 flop19\.q
*293 flop2\.q
*294 flop20\.q
*295 flop21\.q
*296 flop22\.q
*297 flop23\.q
*298 flop24\.q
*299 flop25\.q
*300 flop26\.q
*301 flop27\.q
*302 flop28\.q
*303 flop29\.q
*304 flop3\.q
*305 flop30\.q
*306 flop31\.q
*307 flop32\.q
*308 flop33\.q
*309 flop34\.q
*310 flop35\.q
*311 flop36\.q
*312 flop37\.q
*313 flop38\.q
*314 flop39\.q
*315 flop4\.q
*316 flop40\.q
*317 flop41\.q
*318 flop42\.q
*319 flop43\.q
*320 flop44\.q
*321 flop45\.q
*322 flop46\.q
*323 flop47\.q
*324 flop48\.q
*325 flop49\.q
*326 flop5\.q
*327 flop50\.q
*328 flop51\.q
*329 flop52\.q
*330 flop53\.q
*331 flop54\.q
*332 flop55\.q
*333 flop56\.q
*334 flop57\.q
*335 flop58\.q
*336 flop59\.q
*337 flop6\.q
*338 flop60\.q
*339 flop61\.q
*340 flop62\.q
*341 flop63\.q
*342 flop64\.q
*343 flop65\.q
*344 flop66\.q
*345 flop67\.q
*346 flop68\.q
*347 flop69\.q
*348 flop7\.q
*349 flop70\.q
*350 flop71\.q
*351 flop72\.q
*352 flop73\.q
*353 flop74\.q
*354 flop75\.q
*355 flop76\.q
*356 flop77\.q
*357 flop78\.q
*358 flop79\.q
*359 flop8\.q
*360 flop80\.q
*361 flop81\.q
*362 flop82\.q
*363 flop83\.q
*364 flop84\.q
*365 flop85\.q
*366 flop86\.q
*367 flop87\.q
*368 flop88\.q
*369 flop89\.q
*370 flop9\.q
*371 flop90\.q
*372 flop91\.q
*373 flop92\.q
*374 flop93\.q
*375 flop94\.q
*376 flop95\.q
*377 flop96\.q
*378 flop97\.q
*379 flop98\.q
*380 flop99\.q
*381 mux102\.b
*382 net1
*383 net100
*384 net101
*385 net102
*386 net103
*387 net104
*388 net105
*389 net106
*390 net107
*391 net108
*392 net109
*393 net110
*394 net111
*395 net112
*396 net113
*397 net114
*398 net115
*399 net116
*400 net117
*401 net118
*402 net119
*403 net120
*404 net121
*405 net122
*406 net123
*407 net124
*408 net125
*409 net126
*410 net127
*411 net128
*412 net2
*413 net24
*414 net25
*415 net26
*416 net27
*417 net28
*418 net29
*419 net30
*420 net31
*421 net32
*422 net33
*423 net34
*424 net35
*425 net36
*426 net37
*427 net38
*428 net39
*429 net40
*430 net41
*431 net42
*432 net43
*433 net44
*434 net45
*435 net46
*436 net47
*437 net48
*438 net49
*439 net50
*440 net51
*441 net52
*442 net53
*443 net54
*444 net55
*445 net56
*446 net57
*447 net58
*448 net59
*449 net60
*450 net61
*451 net62
*452 net63
*453 net64
*454 net65
*455 net66
*456 net67
*457 net68
*458 net69
*459 net70
*460 net71
*461 net72
*462 net73
*463 net74
*464 net75
*465 net76
*466 net77
*467 net78
*468 net79
*469 net80
*470 net81
*471 net82
*472 net83
*473 net84
*474 net85
*475 net86
*476 net87
*477 net88
*478 net89
*479 net90
*480 net91
*481 net92
*482 net93
*483 net94
*484 net95
*485 net96
*486 net97
*487 net98
*488 net99
*489 FILLER_0_0_109
*490 FILLER_0_0_113
*491 FILLER_0_0_125
*492 FILLER_0_0_137
*493 FILLER_0_0_141
*494 FILLER_0_0_15
*495 FILLER_0_0_153
*496 FILLER_0_0_165
*497 FILLER_0_0_169
*498 FILLER_0_0_181
*499 FILLER_0_0_193
*500 FILLER_0_0_197
*501 FILLER_0_0_209
*502 FILLER_0_0_221
*503 FILLER_0_0_225
*504 FILLER_0_0_237
*505 FILLER_0_0_249
*506 FILLER_0_0_253
*507 FILLER_0_0_265
*508 FILLER_0_0_27
*509 FILLER_0_0_277
*510 FILLER_0_0_281
*511 FILLER_0_0_29
*512 FILLER_0_0_293
*513 FILLER_0_0_3
*514 FILLER_0_0_305
*515 FILLER_0_0_309
*516 FILLER_0_0_321
*517 FILLER_0_0_333
*518 FILLER_0_0_337
*519 FILLER_0_0_41
*520 FILLER_0_0_53
*521 FILLER_0_0_57
*522 FILLER_0_0_69
*523 FILLER_0_0_81
*524 FILLER_0_0_85
*525 FILLER_0_0_97
*526 FILLER_0_10_109
*527 FILLER_0_10_121
*528 FILLER_0_10_133
*529 FILLER_0_10_139
*530 FILLER_0_10_141
*531 FILLER_0_10_15
*532 FILLER_0_10_153
*533 FILLER_0_10_165
*534 FILLER_0_10_177
*535 FILLER_0_10_189
*536 FILLER_0_10_195
*537 FILLER_0_10_197
*538 FILLER_0_10_209
*539 FILLER_0_10_221
*540 FILLER_0_10_233
*541 FILLER_0_10_245
*542 FILLER_0_10_251
*543 FILLER_0_10_253
*544 FILLER_0_10_265
*545 FILLER_0_10_27
*546 FILLER_0_10_277
*547 FILLER_0_10_289
*548 FILLER_0_10_29
*549 FILLER_0_10_3
*550 FILLER_0_10_301
*551 FILLER_0_10_307
*552 FILLER_0_10_309
*553 FILLER_0_10_321
*554 FILLER_0_10_333
*555 FILLER_0_10_41
*556 FILLER_0_10_53
*557 FILLER_0_10_65
*558 FILLER_0_10_77
*559 FILLER_0_10_83
*560 FILLER_0_10_85
*561 FILLER_0_10_97
*562 FILLER_0_11_105
*563 FILLER_0_11_111
*564 FILLER_0_11_113
*565 FILLER_0_11_125
*566 FILLER_0_11_137
*567 FILLER_0_11_149
*568 FILLER_0_11_15
*569 FILLER_0_11_161
*570 FILLER_0_11_167
*571 FILLER_0_11_169
*572 FILLER_0_11_181
*573 FILLER_0_11_193
*574 FILLER_0_11_205
*575 FILLER_0_11_217
*576 FILLER_0_11_223
*577 FILLER_0_11_225
*578 FILLER_0_11_237
*579 FILLER_0_11_249
*580 FILLER_0_11_261
*581 FILLER_0_11_27
*582 FILLER_0_11_273
*583 FILLER_0_11_279
*584 FILLER_0_11_281
*585 FILLER_0_11_293
*586 FILLER_0_11_3
*587 FILLER_0_11_305
*588 FILLER_0_11_317
*589 FILLER_0_11_329
*590 FILLER_0_11_335
*591 FILLER_0_11_337
*592 FILLER_0_11_39
*593 FILLER_0_11_51
*594 FILLER_0_11_55
*595 FILLER_0_11_57
*596 FILLER_0_11_69
*597 FILLER_0_11_81
*598 FILLER_0_11_93
*599 FILLER_0_12_109
*600 FILLER_0_12_121
*601 FILLER_0_12_133
*602 FILLER_0_12_139
*603 FILLER_0_12_141
*604 FILLER_0_12_15
*605 FILLER_0_12_153
*606 FILLER_0_12_165
*607 FILLER_0_12_177
*608 FILLER_0_12_189
*609 FILLER_0_12_195
*610 FILLER_0_12_197
*611 FILLER_0_12_209
*612 FILLER_0_12_221
*613 FILLER_0_12_233
*614 FILLER_0_12_245
*615 FILLER_0_12_251
*616 FILLER_0_12_253
*617 FILLER_0_12_265
*618 FILLER_0_12_27
*619 FILLER_0_12_277
*620 FILLER_0_12_289
*621 FILLER_0_12_29
*622 FILLER_0_12_3
*623 FILLER_0_12_301
*624 FILLER_0_12_307
*625 FILLER_0_12_309
*626 FILLER_0_12_321
*627 FILLER_0_12_333
*628 FILLER_0_12_41
*629 FILLER_0_12_53
*630 FILLER_0_12_65
*631 FILLER_0_12_77
*632 FILLER_0_12_83
*633 FILLER_0_12_85
*634 FILLER_0_12_97
*635 FILLER_0_13_105
*636 FILLER_0_13_111
*637 FILLER_0_13_113
*638 FILLER_0_13_125
*639 FILLER_0_13_137
*640 FILLER_0_13_149
*641 FILLER_0_13_15
*642 FILLER_0_13_161
*643 FILLER_0_13_167
*644 FILLER_0_13_169
*645 FILLER_0_13_181
*646 FILLER_0_13_193
*647 FILLER_0_13_205
*648 FILLER_0_13_217
*649 FILLER_0_13_223
*650 FILLER_0_13_225
*651 FILLER_0_13_237
*652 FILLER_0_13_249
*653 FILLER_0_13_261
*654 FILLER_0_13_27
*655 FILLER_0_13_273
*656 FILLER_0_13_279
*657 FILLER_0_13_281
*658 FILLER_0_13_293
*659 FILLER_0_13_3
*660 FILLER_0_13_305
*661 FILLER_0_13_317
*662 FILLER_0_13_329
*663 FILLER_0_13_335
*664 FILLER_0_13_337
*665 FILLER_0_13_39
*666 FILLER_0_13_51
*667 FILLER_0_13_55
*668 FILLER_0_13_57
*669 FILLER_0_13_69
*670 FILLER_0_13_81
*671 FILLER_0_13_93
*672 FILLER_0_14_109
*673 FILLER_0_14_121
*674 FILLER_0_14_133
*675 FILLER_0_14_139
*676 FILLER_0_14_141
*677 FILLER_0_14_15
*678 FILLER_0_14_153
*679 FILLER_0_14_165
*680 FILLER_0_14_177
*681 FILLER_0_14_189
*682 FILLER_0_14_195
*683 FILLER_0_14_197
*684 FILLER_0_14_209
*685 FILLER_0_14_221
*686 FILLER_0_14_233
*687 FILLER_0_14_245
*688 FILLER_0_14_251
*689 FILLER_0_14_253
*690 FILLER_0_14_265
*691 FILLER_0_14_27
*692 FILLER_0_14_277
*693 FILLER_0_14_289
*694 FILLER_0_14_29
*695 FILLER_0_14_3
*696 FILLER_0_14_301
*697 FILLER_0_14_307
*698 FILLER_0_14_309
*699 FILLER_0_14_321
*700 FILLER_0_14_333
*701 FILLER_0_14_41
*702 FILLER_0_14_53
*703 FILLER_0_14_65
*704 FILLER_0_14_77
*705 FILLER_0_14_83
*706 FILLER_0_14_85
*707 FILLER_0_14_97
*708 FILLER_0_15_105
*709 FILLER_0_15_111
*710 FILLER_0_15_113
*711 FILLER_0_15_125
*712 FILLER_0_15_137
*713 FILLER_0_15_149
*714 FILLER_0_15_15
*715 FILLER_0_15_161
*716 FILLER_0_15_167
*717 FILLER_0_15_169
*718 FILLER_0_15_181
*719 FILLER_0_15_193
*720 FILLER_0_15_205
*721 FILLER_0_15_217
*722 FILLER_0_15_223
*723 FILLER_0_15_225
*724 FILLER_0_15_237
*725 FILLER_0_15_249
*726 FILLER_0_15_261
*727 FILLER_0_15_27
*728 FILLER_0_15_273
*729 FILLER_0_15_279
*730 FILLER_0_15_281
*731 FILLER_0_15_293
*732 FILLER_0_15_3
*733 FILLER_0_15_305
*734 FILLER_0_15_317
*735 FILLER_0_15_329
*736 FILLER_0_15_335
*737 FILLER_0_15_337
*738 FILLER_0_15_39
*739 FILLER_0_15_51
*740 FILLER_0_15_55
*741 FILLER_0_15_57
*742 FILLER_0_15_69
*743 FILLER_0_15_81
*744 FILLER_0_15_93
*745 FILLER_0_16_109
*746 FILLER_0_16_121
*747 FILLER_0_16_133
*748 FILLER_0_16_139
*749 FILLER_0_16_141
*750 FILLER_0_16_15
*751 FILLER_0_16_153
*752 FILLER_0_16_165
*753 FILLER_0_16_177
*754 FILLER_0_16_189
*755 FILLER_0_16_195
*756 FILLER_0_16_197
*757 FILLER_0_16_209
*758 FILLER_0_16_221
*759 FILLER_0_16_233
*760 FILLER_0_16_245
*761 FILLER_0_16_251
*762 FILLER_0_16_253
*763 FILLER_0_16_265
*764 FILLER_0_16_27
*765 FILLER_0_16_277
*766 FILLER_0_16_289
*767 FILLER_0_16_29
*768 FILLER_0_16_3
*769 FILLER_0_16_301
*770 FILLER_0_16_307
*771 FILLER_0_16_309
*772 FILLER_0_16_321
*773 FILLER_0_16_333
*774 FILLER_0_16_41
*775 FILLER_0_16_53
*776 FILLER_0_16_65
*777 FILLER_0_16_77
*778 FILLER_0_16_83
*779 FILLER_0_16_85
*780 FILLER_0_16_97
*781 FILLER_0_17_105
*782 FILLER_0_17_111
*783 FILLER_0_17_113
*784 FILLER_0_17_125
*785 FILLER_0_17_137
*786 FILLER_0_17_149
*787 FILLER_0_17_15
*788 FILLER_0_17_161
*789 FILLER_0_17_167
*790 FILLER_0_17_169
*791 FILLER_0_17_181
*792 FILLER_0_17_193
*793 FILLER_0_17_205
*794 FILLER_0_17_217
*795 FILLER_0_17_223
*796 FILLER_0_17_225
*797 FILLER_0_17_237
*798 FILLER_0_17_249
*799 FILLER_0_17_261
*800 FILLER_0_17_27
*801 FILLER_0_17_273
*802 FILLER_0_17_279
*803 FILLER_0_17_281
*804 FILLER_0_17_293
*805 FILLER_0_17_3
*806 FILLER_0_17_305
*807 FILLER_0_17_317
*808 FILLER_0_17_329
*809 FILLER_0_17_335
*810 FILLER_0_17_337
*811 FILLER_0_17_39
*812 FILLER_0_17_51
*813 FILLER_0_17_55
*814 FILLER_0_17_57
*815 FILLER_0_17_69
*816 FILLER_0_17_81
*817 FILLER_0_17_93
*818 FILLER_0_18_109
*819 FILLER_0_18_121
*820 FILLER_0_18_133
*821 FILLER_0_18_139
*822 FILLER_0_18_141
*823 FILLER_0_18_15
*824 FILLER_0_18_153
*825 FILLER_0_18_165
*826 FILLER_0_18_177
*827 FILLER_0_18_189
*828 FILLER_0_18_195
*829 FILLER_0_18_197
*830 FILLER_0_18_209
*831 FILLER_0_18_221
*832 FILLER_0_18_233
*833 FILLER_0_18_245
*834 FILLER_0_18_251
*835 FILLER_0_18_253
*836 FILLER_0_18_265
*837 FILLER_0_18_27
*838 FILLER_0_18_277
*839 FILLER_0_18_289
*840 FILLER_0_18_29
*841 FILLER_0_18_3
*842 FILLER_0_18_301
*843 FILLER_0_18_307
*844 FILLER_0_18_309
*845 FILLER_0_18_321
*846 FILLER_0_18_333
*847 FILLER_0_18_41
*848 FILLER_0_18_53
*849 FILLER_0_18_65
*850 FILLER_0_18_77
*851 FILLER_0_18_83
*852 FILLER_0_18_85
*853 FILLER_0_18_97
*854 FILLER_0_19_105
*855 FILLER_0_19_111
*856 FILLER_0_19_113
*857 FILLER_0_19_117
*858 FILLER_0_19_124
*859 FILLER_0_19_128
*860 FILLER_0_19_135
*861 FILLER_0_19_147
*862 FILLER_0_19_15
*863 FILLER_0_19_164
*864 FILLER_0_19_169
*865 FILLER_0_19_181
*866 FILLER_0_19_196
*867 FILLER_0_19_208
*868 FILLER_0_19_216
*869 FILLER_0_19_223
*870 FILLER_0_19_233
*871 FILLER_0_19_245
*872 FILLER_0_19_257
*873 FILLER_0_19_269
*874 FILLER_0_19_27
*875 FILLER_0_19_277
*876 FILLER_0_19_281
*877 FILLER_0_19_293
*878 FILLER_0_19_3
*879 FILLER_0_19_305
*880 FILLER_0_19_315
*881 FILLER_0_19_324
*882 FILLER_0_19_337
*883 FILLER_0_19_39
*884 FILLER_0_19_51
*885 FILLER_0_19_55
*886 FILLER_0_19_57
*887 FILLER_0_19_69
*888 FILLER_0_19_81
*889 FILLER_0_19_93
*890 FILLER_0_1_105
*891 FILLER_0_1_111
*892 FILLER_0_1_113
*893 FILLER_0_1_125
*894 FILLER_0_1_137
*895 FILLER_0_1_149
*896 FILLER_0_1_15
*897 FILLER_0_1_161
*898 FILLER_0_1_167
*899 FILLER_0_1_169
*900 FILLER_0_1_181
*901 FILLER_0_1_193
*902 FILLER_0_1_205
*903 FILLER_0_1_217
*904 FILLER_0_1_223
*905 FILLER_0_1_225
*906 FILLER_0_1_237
*907 FILLER_0_1_249
*908 FILLER_0_1_261
*909 FILLER_0_1_27
*910 FILLER_0_1_273
*911 FILLER_0_1_279
*912 FILLER_0_1_281
*913 FILLER_0_1_293
*914 FILLER_0_1_3
*915 FILLER_0_1_305
*916 FILLER_0_1_317
*917 FILLER_0_1_329
*918 FILLER_0_1_335
*919 FILLER_0_1_337
*920 FILLER_0_1_39
*921 FILLER_0_1_51
*922 FILLER_0_1_55
*923 FILLER_0_1_57
*924 FILLER_0_1_69
*925 FILLER_0_1_81
*926 FILLER_0_1_93
*927 FILLER_0_20_109
*928 FILLER_0_20_129
*929 FILLER_0_20_139
*930 FILLER_0_20_141
*931 FILLER_0_20_15
*932 FILLER_0_20_164
*933 FILLER_0_20_176
*934 FILLER_0_20_188
*935 FILLER_0_20_213
*936 FILLER_0_20_241
*937 FILLER_0_20_249
*938 FILLER_0_20_253
*939 FILLER_0_20_265
*940 FILLER_0_20_27
*941 FILLER_0_20_285
*942 FILLER_0_20_29
*943 FILLER_0_20_3
*944 FILLER_0_20_302
*945 FILLER_0_20_320
*946 FILLER_0_20_338
*947 FILLER_0_20_41
*948 FILLER_0_20_53
*949 FILLER_0_20_65
*950 FILLER_0_20_77
*951 FILLER_0_20_83
*952 FILLER_0_20_85
*953 FILLER_0_20_97
*954 FILLER_0_21_101
*955 FILLER_0_21_107
*956 FILLER_0_21_113
*957 FILLER_0_21_126
*958 FILLER_0_21_147
*959 FILLER_0_21_15
*960 FILLER_0_21_166
*961 FILLER_0_21_169
*962 FILLER_0_21_181
*963 FILLER_0_21_241
*964 FILLER_0_21_27
*965 FILLER_0_21_278
*966 FILLER_0_21_281
*967 FILLER_0_21_3
*968 FILLER_0_21_337
*969 FILLER_0_21_39
*970 FILLER_0_21_51
*971 FILLER_0_21_55
*972 FILLER_0_21_57
*973 FILLER_0_21_69
*974 FILLER_0_21_81
*975 FILLER_0_21_93
*976 FILLER_0_22_137
*977 FILLER_0_22_15
*978 FILLER_0_22_178
*979 FILLER_0_22_213
*980 FILLER_0_22_243
*981 FILLER_0_22_256
*982 FILLER_0_22_265
*983 FILLER_0_22_27
*984 FILLER_0_22_29
*985 FILLER_0_22_3
*986 FILLER_0_22_307
*987 FILLER_0_22_41
*988 FILLER_0_22_53
*989 FILLER_0_22_65
*990 FILLER_0_22_77
*991 FILLER_0_22_83
*992 FILLER_0_22_85
*993 FILLER_0_22_97
*994 FILLER_0_23_110
*995 FILLER_0_23_129
*996 FILLER_0_23_133
*997 FILLER_0_23_145
*998 FILLER_0_23_15
*999 FILLER_0_23_172
*1000 FILLER_0_23_184
*1001 FILLER_0_23_209
*1002 FILLER_0_23_228
*1003 FILLER_0_23_240
*1004 FILLER_0_23_263
*1005 FILLER_0_23_27
*1006 FILLER_0_23_281
*1007 FILLER_0_23_299
*1008 FILLER_0_23_3
*1009 FILLER_0_23_308
*1010 FILLER_0_23_337
*1011 FILLER_0_23_39
*1012 FILLER_0_23_51
*1013 FILLER_0_23_55
*1014 FILLER_0_23_57
*1015 FILLER_0_23_69
*1016 FILLER_0_23_81
*1017 FILLER_0_24_101
*1018 FILLER_0_24_123
*1019 FILLER_0_24_138
*1020 FILLER_0_24_15
*1021 FILLER_0_24_152
*1022 FILLER_0_24_162
*1023 FILLER_0_24_174
*1024 FILLER_0_24_194
*1025 FILLER_0_24_197
*1026 FILLER_0_24_222
*1027 FILLER_0_24_241
*1028 FILLER_0_24_251
*1029 FILLER_0_24_253
*1030 FILLER_0_24_27
*1031 FILLER_0_24_270
*1032 FILLER_0_24_29
*1033 FILLER_0_24_3
*1034 FILLER_0_24_41
*1035 FILLER_0_24_53
*1036 FILLER_0_24_61
*1037 FILLER_0_24_76
*1038 FILLER_0_24_82
*1039 FILLER_0_25_109
*1040 FILLER_0_25_15
*1041 FILLER_0_25_151
*1042 FILLER_0_25_160
*1043 FILLER_0_25_172
*1044 FILLER_0_25_219
*1045 FILLER_0_25_223
*1046 FILLER_0_25_225
*1047 FILLER_0_25_237
*1048 FILLER_0_25_27
*1049 FILLER_0_25_272
*1050 FILLER_0_25_284
*1051 FILLER_0_25_290
*1052 FILLER_0_25_294
*1053 FILLER_0_25_3
*1054 FILLER_0_25_320
*1055 FILLER_0_25_332
*1056 FILLER_0_25_337
*1057 FILLER_0_25_39
*1058 FILLER_0_25_51
*1059 FILLER_0_25_55
*1060 FILLER_0_25_71
*1061 FILLER_0_25_75
*1062 FILLER_0_26_15
*1063 FILLER_0_26_163
*1064 FILLER_0_26_181
*1065 FILLER_0_26_190
*1066 FILLER_0_26_197
*1067 FILLER_0_26_206
*1068 FILLER_0_26_210
*1069 FILLER_0_26_235
*1070 FILLER_0_26_241
*1071 FILLER_0_26_248
*1072 FILLER_0_26_253
*1073 FILLER_0_26_27
*1074 FILLER_0_26_281
*1075 FILLER_0_26_29
*1076 FILLER_0_26_3
*1077 FILLER_0_26_318
*1078 FILLER_0_26_326
*1079 FILLER_0_26_335
*1080 FILLER_0_26_41
*1081 FILLER_0_26_93
*1082 FILLER_0_27_121
*1083 FILLER_0_27_15
*1084 FILLER_0_27_152
*1085 FILLER_0_27_161
*1086 FILLER_0_27_167
*1087 FILLER_0_27_180
*1088 FILLER_0_27_186
*1089 FILLER_0_27_209
*1090 FILLER_0_27_222
*1091 FILLER_0_27_244
*1092 FILLER_0_27_256
*1093 FILLER_0_27_27
*1094 FILLER_0_27_279
*1095 FILLER_0_27_3
*1096 FILLER_0_27_305
*1097 FILLER_0_27_316
*1098 FILLER_0_27_333
*1099 FILLER_0_27_337
*1100 FILLER_0_27_39
*1101 FILLER_0_27_51
*1102 FILLER_0_27_55
*1103 FILLER_0_28_109
*1104 FILLER_0_28_128
*1105 FILLER_0_28_139
*1106 FILLER_0_28_149
*1107 FILLER_0_28_15
*1108 FILLER_0_28_161
*1109 FILLER_0_28_173
*1110 FILLER_0_28_179
*1111 FILLER_0_28_217
*1112 FILLER_0_28_239
*1113 FILLER_0_28_243
*1114 FILLER_0_28_247
*1115 FILLER_0_28_253
*1116 FILLER_0_28_27
*1117 FILLER_0_28_29
*1118 FILLER_0_28_3
*1119 FILLER_0_28_305
*1120 FILLER_0_28_309
*1121 FILLER_0_28_337
*1122 FILLER_0_28_41
*1123 FILLER_0_28_70
*1124 FILLER_0_28_78
*1125 FILLER_0_29_107
*1126 FILLER_0_29_111
*1127 FILLER_0_29_124
*1128 FILLER_0_29_134
*1129 FILLER_0_29_15
*1130 FILLER_0_29_164
*1131 FILLER_0_29_169
*1132 FILLER_0_29_196
*1133 FILLER_0_29_247
*1134 FILLER_0_29_27
*1135 FILLER_0_29_279
*1136 FILLER_0_29_289
*1137 FILLER_0_29_3
*1138 FILLER_0_29_331
*1139 FILLER_0_29_335
*1140 FILLER_0_29_337
*1141 FILLER_0_29_39
*1142 FILLER_0_29_73
*1143 FILLER_0_29_85
*1144 FILLER_0_2_109
*1145 FILLER_0_2_121
*1146 FILLER_0_2_133
*1147 FILLER_0_2_139
*1148 FILLER_0_2_141
*1149 FILLER_0_2_15
*1150 FILLER_0_2_153
*1151 FILLER_0_2_165
*1152 FILLER_0_2_177
*1153 FILLER_0_2_189
*1154 FILLER_0_2_195
*1155 FILLER_0_2_197
*1156 FILLER_0_2_209
*1157 FILLER_0_2_221
*1158 FILLER_0_2_233
*1159 FILLER_0_2_245
*1160 FILLER_0_2_251
*1161 FILLER_0_2_253
*1162 FILLER_0_2_265
*1163 FILLER_0_2_27
*1164 FILLER_0_2_277
*1165 FILLER_0_2_289
*1166 FILLER_0_2_29
*1167 FILLER_0_2_3
*1168 FILLER_0_2_301
*1169 FILLER_0_2_307
*1170 FILLER_0_2_309
*1171 FILLER_0_2_321
*1172 FILLER_0_2_333
*1173 FILLER_0_2_41
*1174 FILLER_0_2_53
*1175 FILLER_0_2_65
*1176 FILLER_0_2_77
*1177 FILLER_0_2_83
*1178 FILLER_0_2_85
*1179 FILLER_0_2_97
*1180 FILLER_0_30_141
*1181 FILLER_0_30_15
*1182 FILLER_0_30_150
*1183 FILLER_0_30_154
*1184 FILLER_0_30_197
*1185 FILLER_0_30_250
*1186 FILLER_0_30_269
*1187 FILLER_0_30_27
*1188 FILLER_0_30_29
*1189 FILLER_0_30_3
*1190 FILLER_0_30_325
*1191 FILLER_0_30_337
*1192 FILLER_0_30_41
*1193 FILLER_0_30_45
*1194 FILLER_0_30_79
*1195 FILLER_0_30_83
*1196 FILLER_0_30_85
*1197 FILLER_0_30_93
*1198 FILLER_0_30_98
*1199 FILLER_0_31_107
*1200 FILLER_0_31_111
*1201 FILLER_0_31_127
*1202 FILLER_0_31_15
*1203 FILLER_0_31_152
*1204 FILLER_0_31_161
*1205 FILLER_0_31_167
*1206 FILLER_0_31_185
*1207 FILLER_0_31_221
*1208 FILLER_0_31_236
*1209 FILLER_0_31_255
*1210 FILLER_0_31_27
*1211 FILLER_0_31_278
*1212 FILLER_0_31_287
*1213 FILLER_0_31_3
*1214 FILLER_0_31_307
*1215 FILLER_0_31_318
*1216 FILLER_0_31_330
*1217 FILLER_0_31_337
*1218 FILLER_0_31_39
*1219 FILLER_0_31_81
*1220 FILLER_0_31_89
*1221 FILLER_0_32_100
*1222 FILLER_0_32_15
*1223 FILLER_0_32_150
*1224 FILLER_0_32_156
*1225 FILLER_0_32_163
*1226 FILLER_0_32_171
*1227 FILLER_0_32_175
*1228 FILLER_0_32_183
*1229 FILLER_0_32_193
*1230 FILLER_0_32_213
*1231 FILLER_0_32_222
*1232 FILLER_0_32_234
*1233 FILLER_0_32_246
*1234 FILLER_0_32_253
*1235 FILLER_0_32_265
*1236 FILLER_0_32_27
*1237 FILLER_0_32_276
*1238 FILLER_0_32_280
*1239 FILLER_0_32_29
*1240 FILLER_0_32_292
*1241 FILLER_0_32_3
*1242 FILLER_0_32_305
*1243 FILLER_0_32_309
*1244 FILLER_0_32_330
*1245 FILLER_0_32_336
*1246 FILLER_0_32_41
*1247 FILLER_0_32_88
*1248 FILLER_0_33_105
*1249 FILLER_0_33_111
*1250 FILLER_0_33_113
*1251 FILLER_0_33_136
*1252 FILLER_0_33_140
*1253 FILLER_0_33_15
*1254 FILLER_0_33_157
*1255 FILLER_0_33_166
*1256 FILLER_0_33_169
*1257 FILLER_0_33_181
*1258 FILLER_0_33_185
*1259 FILLER_0_33_202
*1260 FILLER_0_33_222
*1261 FILLER_0_33_233
*1262 FILLER_0_33_241
*1263 FILLER_0_33_248
*1264 FILLER_0_33_27
*1265 FILLER_0_33_271
*1266 FILLER_0_33_281
*1267 FILLER_0_33_3
*1268 FILLER_0_33_335
*1269 FILLER_0_33_337
*1270 FILLER_0_33_39
*1271 FILLER_0_33_51
*1272 FILLER_0_33_81
*1273 FILLER_0_33_90
*1274 FILLER_0_34_139
*1275 FILLER_0_34_147
*1276 FILLER_0_34_15
*1277 FILLER_0_34_158
*1278 FILLER_0_34_175
*1279 FILLER_0_34_179
*1280 FILLER_0_34_186
*1281 FILLER_0_34_197
*1282 FILLER_0_34_247
*1283 FILLER_0_34_251
*1284 FILLER_0_34_27
*1285 FILLER_0_34_29
*1286 FILLER_0_34_3
*1287 FILLER_0_34_306
*1288 FILLER_0_34_41
*1289 FILLER_0_34_49
*1290 FILLER_0_35_103
*1291 FILLER_0_35_111
*1292 FILLER_0_35_121
*1293 FILLER_0_35_134
*1294 FILLER_0_35_140
*1295 FILLER_0_35_149
*1296 FILLER_0_35_15
*1297 FILLER_0_35_205
*1298 FILLER_0_35_222
*1299 FILLER_0_35_241
*1300 FILLER_0_35_256
*1301 FILLER_0_35_27
*1302 FILLER_0_35_279
*1303 FILLER_0_35_3
*1304 FILLER_0_35_308
*1305 FILLER_0_35_334
*1306 FILLER_0_35_337
*1307 FILLER_0_35_39
*1308 FILLER_0_35_51
*1309 FILLER_0_35_55
*1310 FILLER_0_35_57
*1311 FILLER_0_35_92
*1312 FILLER_0_36_100
*1313 FILLER_0_36_104
*1314 FILLER_0_36_108
*1315 FILLER_0_36_113
*1316 FILLER_0_36_12
*1317 FILLER_0_36_130
*1318 FILLER_0_36_138
*1319 FILLER_0_36_153
*1320 FILLER_0_36_16
*1321 FILLER_0_36_160
*1322 FILLER_0_36_172
*1323 FILLER_0_36_176
*1324 FILLER_0_36_188
*1325 FILLER_0_36_197
*1326 FILLER_0_36_20
*1327 FILLER_0_36_206
*1328 FILLER_0_36_214
*1329 FILLER_0_36_222
*1330 FILLER_0_36_24
*1331 FILLER_0_36_249
*1332 FILLER_0_36_284
*1333 FILLER_0_36_296
*1334 FILLER_0_36_3
*1335 FILLER_0_36_312
*1336 FILLER_0_36_32
*1337 FILLER_0_36_321
*1338 FILLER_0_36_337
*1339 FILLER_0_36_36
*1340 FILLER_0_36_40
*1341 FILLER_0_36_44
*1342 FILLER_0_36_48
*1343 FILLER_0_36_52
*1344 FILLER_0_36_57
*1345 FILLER_0_36_64
*1346 FILLER_0_36_68
*1347 FILLER_0_36_75
*1348 FILLER_0_36_8
*1349 FILLER_0_36_80
*1350 FILLER_0_36_96
*1351 FILLER_0_3_105
*1352 FILLER_0_3_111
*1353 FILLER_0_3_113
*1354 FILLER_0_3_125
*1355 FILLER_0_3_137
*1356 FILLER_0_3_149
*1357 FILLER_0_3_15
*1358 FILLER_0_3_161
*1359 FILLER_0_3_167
*1360 FILLER_0_3_169
*1361 FILLER_0_3_181
*1362 FILLER_0_3_193
*1363 FILLER_0_3_205
*1364 FILLER_0_3_217
*1365 FILLER_0_3_223
*1366 FILLER_0_3_225
*1367 FILLER_0_3_237
*1368 FILLER_0_3_249
*1369 FILLER_0_3_261
*1370 FILLER_0_3_27
*1371 FILLER_0_3_273
*1372 FILLER_0_3_279
*1373 FILLER_0_3_281
*1374 FILLER_0_3_293
*1375 FILLER_0_3_3
*1376 FILLER_0_3_305
*1377 FILLER_0_3_317
*1378 FILLER_0_3_329
*1379 FILLER_0_3_335
*1380 FILLER_0_3_337
*1381 FILLER_0_3_39
*1382 FILLER_0_3_51
*1383 FILLER_0_3_55
*1384 FILLER_0_3_57
*1385 FILLER_0_3_69
*1386 FILLER_0_3_81
*1387 FILLER_0_3_93
*1388 FILLER_0_4_109
*1389 FILLER_0_4_121
*1390 FILLER_0_4_133
*1391 FILLER_0_4_139
*1392 FILLER_0_4_141
*1393 FILLER_0_4_15
*1394 FILLER_0_4_153
*1395 FILLER_0_4_165
*1396 FILLER_0_4_177
*1397 FILLER_0_4_189
*1398 FILLER_0_4_195
*1399 FILLER_0_4_197
*1400 FILLER_0_4_209
*1401 FILLER_0_4_221
*1402 FILLER_0_4_233
*1403 FILLER_0_4_245
*1404 FILLER_0_4_251
*1405 FILLER_0_4_253
*1406 FILLER_0_4_265
*1407 FILLER_0_4_27
*1408 FILLER_0_4_277
*1409 FILLER_0_4_289
*1410 FILLER_0_4_29
*1411 FILLER_0_4_3
*1412 FILLER_0_4_301
*1413 FILLER_0_4_307
*1414 FILLER_0_4_309
*1415 FILLER_0_4_321
*1416 FILLER_0_4_333
*1417 FILLER_0_4_41
*1418 FILLER_0_4_53
*1419 FILLER_0_4_65
*1420 FILLER_0_4_77
*1421 FILLER_0_4_83
*1422 FILLER_0_4_85
*1423 FILLER_0_4_97
*1424 FILLER_0_5_105
*1425 FILLER_0_5_111
*1426 FILLER_0_5_113
*1427 FILLER_0_5_125
*1428 FILLER_0_5_137
*1429 FILLER_0_5_149
*1430 FILLER_0_5_15
*1431 FILLER_0_5_161
*1432 FILLER_0_5_167
*1433 FILLER_0_5_169
*1434 FILLER_0_5_181
*1435 FILLER_0_5_193
*1436 FILLER_0_5_205
*1437 FILLER_0_5_217
*1438 FILLER_0_5_223
*1439 FILLER_0_5_225
*1440 FILLER_0_5_237
*1441 FILLER_0_5_249
*1442 FILLER_0_5_261
*1443 FILLER_0_5_27
*1444 FILLER_0_5_273
*1445 FILLER_0_5_279
*1446 FILLER_0_5_281
*1447 FILLER_0_5_293
*1448 FILLER_0_5_3
*1449 FILLER_0_5_305
*1450 FILLER_0_5_317
*1451 FILLER_0_5_329
*1452 FILLER_0_5_335
*1453 FILLER_0_5_337
*1454 FILLER_0_5_39
*1455 FILLER_0_5_51
*1456 FILLER_0_5_55
*1457 FILLER_0_5_57
*1458 FILLER_0_5_69
*1459 FILLER_0_5_81
*1460 FILLER_0_5_93
*1461 FILLER_0_6_109
*1462 FILLER_0_6_121
*1463 FILLER_0_6_133
*1464 FILLER_0_6_139
*1465 FILLER_0_6_141
*1466 FILLER_0_6_15
*1467 FILLER_0_6_153
*1468 FILLER_0_6_165
*1469 FILLER_0_6_177
*1470 FILLER_0_6_189
*1471 FILLER_0_6_195
*1472 FILLER_0_6_197
*1473 FILLER_0_6_209
*1474 FILLER_0_6_221
*1475 FILLER_0_6_233
*1476 FILLER_0_6_245
*1477 FILLER_0_6_251
*1478 FILLER_0_6_253
*1479 FILLER_0_6_265
*1480 FILLER_0_6_27
*1481 FILLER_0_6_277
*1482 FILLER_0_6_289
*1483 FILLER_0_6_29
*1484 FILLER_0_6_3
*1485 FILLER_0_6_301
*1486 FILLER_0_6_307
*1487 FILLER_0_6_309
*1488 FILLER_0_6_321
*1489 FILLER_0_6_333
*1490 FILLER_0_6_41
*1491 FILLER_0_6_53
*1492 FILLER_0_6_65
*1493 FILLER_0_6_77
*1494 FILLER_0_6_83
*1495 FILLER_0_6_85
*1496 FILLER_0_6_97
*1497 FILLER_0_7_105
*1498 FILLER_0_7_111
*1499 FILLER_0_7_113
*1500 FILLER_0_7_125
*1501 FILLER_0_7_137
*1502 FILLER_0_7_149
*1503 FILLER_0_7_15
*1504 FILLER_0_7_161
*1505 FILLER_0_7_167
*1506 FILLER_0_7_169
*1507 FILLER_0_7_181
*1508 FILLER_0_7_193
*1509 FILLER_0_7_205
*1510 FILLER_0_7_217
*1511 FILLER_0_7_223
*1512 FILLER_0_7_225
*1513 FILLER_0_7_237
*1514 FILLER_0_7_249
*1515 FILLER_0_7_261
*1516 FILLER_0_7_27
*1517 FILLER_0_7_273
*1518 FILLER_0_7_279
*1519 FILLER_0_7_281
*1520 FILLER_0_7_293
*1521 FILLER_0_7_3
*1522 FILLER_0_7_305
*1523 FILLER_0_7_317
*1524 FILLER_0_7_329
*1525 FILLER_0_7_335
*1526 FILLER_0_7_337
*1527 FILLER_0_7_39
*1528 FILLER_0_7_51
*1529 FILLER_0_7_55
*1530 FILLER_0_7_57
*1531 FILLER_0_7_69
*1532 FILLER_0_7_81
*1533 FILLER_0_7_93
*1534 FILLER_0_8_109
*1535 FILLER_0_8_121
*1536 FILLER_0_8_133
*1537 FILLER_0_8_139
*1538 FILLER_0_8_141
*1539 FILLER_0_8_15
*1540 FILLER_0_8_153
*1541 FILLER_0_8_165
*1542 FILLER_0_8_177
*1543 FILLER_0_8_189
*1544 FILLER_0_8_195
*1545 FILLER_0_8_197
*1546 FILLER_0_8_209
*1547 FILLER_0_8_221
*1548 FILLER_0_8_233
*1549 FILLER_0_8_245
*1550 FILLER_0_8_251
*1551 FILLER_0_8_253
*1552 FILLER_0_8_265
*1553 FILLER_0_8_27
*1554 FILLER_0_8_277
*1555 FILLER_0_8_289
*1556 FILLER_0_8_29
*1557 FILLER_0_8_3
*1558 FILLER_0_8_301
*1559 FILLER_0_8_307
*1560 FILLER_0_8_309
*1561 FILLER_0_8_321
*1562 FILLER_0_8_333
*1563 FILLER_0_8_41
*1564 FILLER_0_8_53
*1565 FILLER_0_8_65
*1566 FILLER_0_8_77
*1567 FILLER_0_8_83
*1568 FILLER_0_8_85
*1569 FILLER_0_8_97
*1570 FILLER_0_9_105
*1571 FILLER_0_9_111
*1572 FILLER_0_9_113
*1573 FILLER_0_9_125
*1574 FILLER_0_9_137
*1575 FILLER_0_9_149
*1576 FILLER_0_9_15
*1577 FILLER_0_9_161
*1578 FILLER_0_9_167
*1579 FILLER_0_9_169
*1580 FILLER_0_9_181
*1581 FILLER_0_9_193
*1582 FILLER_0_9_205
*1583 FILLER_0_9_217
*1584 FILLER_0_9_223
*1585 FILLER_0_9_225
*1586 FILLER_0_9_237
*1587 FILLER_0_9_249
*1588 FILLER_0_9_261
*1589 FILLER_0_9_27
*1590 FILLER_0_9_273
*1591 FILLER_0_9_279
*1592 FILLER_0_9_281
*1593 FILLER_0_9_293
*1594 FILLER_0_9_3
*1595 FILLER_0_9_305
*1596 FILLER_0_9_317
*1597 FILLER_0_9_329
*1598 FILLER_0_9_335
*1599 FILLER_0_9_337
*1600 FILLER_0_9_39
*1601 FILLER_0_9_51
*1602 FILLER_0_9_55
*1603 FILLER_0_9_57
*1604 FILLER_0_9_69
*1605 FILLER_0_9_81
*1606 FILLER_0_9_93
*1607 PHY_0
*1608 PHY_1
*1609 PHY_10
*1610 PHY_11
*1611 PHY_12
*1612 PHY_13
*1613 PHY_14
*1614 PHY_15
*1615 PHY_16
*1616 PHY_17
*1617 PHY_18
*1618 PHY_19
*1619 PHY_2
*1620 PHY_20
*1621 PHY_21
*1622 PHY_22
*1623 PHY_23
*1624 PHY_24
*1625 PHY_25
*1626 PHY_26
*1627 PHY_27
*1628 PHY_28
*1629 PHY_29
*1630 PHY_3
*1631 PHY_30
*1632 PHY_31
*1633 PHY_32
*1634 PHY_33
*1635 PHY_34
*1636 PHY_35
*1637 PHY_36
*1638 PHY_37
*1639 PHY_38
*1640 PHY_39
*1641 PHY_4
*1642 PHY_40
*1643 PHY_41