*SPEF "ieee 1481-1999"
*DESIGN "tt_um_ciro"
*DATE "11:11:11 Fri 11 11, 1111"
*VENDOR "OpenRCX"
*PROGRAM "Parallel Extraction"
*VERSION "1.0"
*DESIGN_FLOW "NAME_SCOPE LOCAL" "PIN_CAP NONE"
*DIVIDER /
*DELIMITER :
*BUS_DELIMITER []
*T_UNIT 1 NS
*C_UNIT 1 PF
*R_UNIT 1 OHM
*L_UNIT 1 HENRY

*NAME_MAP
*3 clk
*4 ena
*5 rst_n
*6 ui_in[0]
*7 ui_in[1]
*8 ui_in[2]
*9 ui_in[3]
*10 ui_in[4]
*11 ui_in[5]
*12 ui_in[6]
*13 ui_in[7]
*14 uio_in[0]
*15 uio_in[1]
*16 uio_in[2]
*17 uio_in[3]
*18 uio_in[4]
*19 uio_in[5]
*20 uio_in[6]
*21 uio_in[7]
*22 net15
*23 net16
*24 net17
*25 net18
*26 net19
*27 net20
*28 net21
*29 net22
*30 uio_out[0]
*31 uio_out[1]
*32 uio_out[2]
*33 uio_out[3]
*34 uio_out[4]
*35 uio_out[5]
*36 uio_out[6]
*37 uio_out[7]
*38 net7
*39 net8
*40 net9
*41 net10
*42 net11
*43 net12
*44 net13
*45 net14
*46 _000_
*47 _001_
*48 _002_
*49 _003_
*50 _004_
*51 _005_
*52 _006_
*53 _007_
*54 _008_
*55 _009_
*56 _010_
*57 _011_
*58 _012_
*59 _013_
*60 _014_
*61 _015_
*62 _016_
*63 _017_
*64 _018_
*65 _019_
*66 _020_
*67 _021_
*68 _022_
*69 _023_
*70 _024_
*71 _025_
*72 _026_
*73 _027_
*74 _028_
*75 _029_
*76 _030_
*77 _031_
*78 _032_
*79 _033_
*80 _034_
*81 _035_
*82 _036_
*83 _037_
*84 _038_
*85 _039_
*86 _040_
*87 _041_
*88 _042_
*89 _043_
*90 _044_
*91 _045_
*92 _046_
*93 _047_
*94 _048_
*95 _049_
*96 _050_
*97 _051_
*98 _052_
*99 _053_
*100 _054_
*101 _055_
*102 _056_
*103 _057_
*104 _058_
*105 _059_
*106 _060_
*107 _061_
*108 _062_
*109 _063_
*110 _064_
*111 _065_
*112 _066_
*113 _067_
*114 _068_
*115 _069_
*116 _070_
*117 _071_
*118 _072_
*119 _073_
*120 _074_
*121 _075_
*122 _076_
*123 _077_
*124 _078_
*125 _079_
*126 _080_
*127 _081_
*128 _082_
*129 _083_
*130 _084_
*131 _085_
*132 _086_
*133 _087_
*134 clknet_0_clk
*135 clknet_2_0__leaf_clk
*136 clknet_2_1__leaf_clk
*137 clknet_2_2__leaf_clk
*138 clknet_2_3__leaf_clk
*139 mod_top\.max_o
*140 mod_top\.min_o
*141 mod_top\.mod_clk_div\.reg_d\[0\]
*142 mod_top\.mod_clk_div\.reg_d\[10\]
*143 mod_top\.mod_clk_div\.reg_d\[11\]
*144 mod_top\.mod_clk_div\.reg_d\[12\]
*145 mod_top\.mod_clk_div\.reg_d\[13\]
*146 mod_top\.mod_clk_div\.reg_d\[14\]
*147 mod_top\.mod_clk_div\.reg_d\[15\]
*148 mod_top\.mod_clk_div\.reg_d\[16\]
*149 mod_top\.mod_clk_div\.reg_d\[17\]
*150 mod_top\.mod_clk_div\.reg_d\[18\]
*151 mod_top\.mod_clk_div\.reg_d\[19\]
*152 mod_top\.mod_clk_div\.reg_d\[1\]
*153 mod_top\.mod_clk_div\.reg_d\[20\]
*154 mod_top\.mod_clk_div\.reg_d\[21\]
*155 mod_top\.mod_clk_div\.reg_d\[22\]
*156 mod_top\.mod_clk_div\.reg_d\[23\]
*157 mod_top\.mod_clk_div\.reg_d\[24\]
*158 mod_top\.mod_clk_div\.reg_d\[25\]
*159 mod_top\.mod_clk_div\.reg_d\[2\]
*160 mod_top\.mod_clk_div\.reg_d\[3\]
*161 mod_top\.mod_clk_div\.reg_d\[4\]
*162 mod_top\.mod_clk_div\.reg_d\[5\]
*163 mod_top\.mod_clk_div\.reg_d\[6\]
*164 mod_top\.mod_clk_div\.reg_d\[7\]
*165 mod_top\.mod_clk_div\.reg_d\[8\]
*166 mod_top\.mod_clk_div\.reg_d\[9\]
*167 mod_top\.mod_clk_div\.reg_q\[0\]
*168 mod_top\.mod_clk_div\.reg_q\[10\]
*169 mod_top\.mod_clk_div\.reg_q\[11\]
*170 mod_top\.mod_clk_div\.reg_q\[12\]
*171 mod_top\.mod_clk_div\.reg_q\[13\]
*172 mod_top\.mod_clk_div\.reg_q\[14\]
*173 mod_top\.mod_clk_div\.reg_q\[15\]
*174 mod_top\.mod_clk_div\.reg_q\[16\]
*175 mod_top\.mod_clk_div\.reg_q\[17\]
*176 mod_top\.mod_clk_div\.reg_q\[18\]
*177 mod_top\.mod_clk_div\.reg_q\[19\]
*178 mod_top\.mod_clk_div\.reg_q\[1\]
*179 mod_top\.mod_clk_div\.reg_q\[20\]
*180 mod_top\.mod_clk_div\.reg_q\[21\]
*181 mod_top\.mod_clk_div\.reg_q\[22\]
*182 mod_top\.mod_clk_div\.reg_q\[23\]
*183 mod_top\.mod_clk_div\.reg_q\[24\]
*184 mod_top\.mod_clk_div\.reg_q\[25\]
*185 mod_top\.mod_clk_div\.reg_q\[2\]
*186 mod_top\.mod_clk_div\.reg_q\[3\]
*187 mod_top\.mod_clk_div\.reg_q\[4\]
*188 mod_top\.mod_clk_div\.reg_q\[5\]
*189 mod_top\.mod_clk_div\.reg_q\[6\]
*190 mod_top\.mod_clk_div\.reg_q\[7\]
*191 mod_top\.mod_clk_div\.reg_q\[8\]
*192 mod_top\.mod_clk_div\.reg_q\[9\]
*193 mod_top\.mod_ff_toggle\.q_o
*194 net1
*195 net2
*196 net23
*197 net24
*198 net25
*199 net26
*200 net27
*201 net28
*202 net29
*203 net3
*204 net30
*205 net31
*206 net32
*207 net33
*208 net34
*209 net35
*210 net36
*211 net37
*212 net38
*213 net39
*214 net4
*215 net40
*216 net5
*217 net6
*218 FILLER_0_0_109
*219 FILLER_0_0_113
*220 FILLER_0_0_125
*221 FILLER_0_0_137
*222 FILLER_0_0_141
*223 FILLER_0_0_15
*224 FILLER_0_0_153
*225 FILLER_0_0_165
*226 FILLER_0_0_169
*227 FILLER_0_0_181
*228 FILLER_0_0_193
*229 FILLER_0_0_197
*230 FILLER_0_0_209
*231 FILLER_0_0_221
*232 FILLER_0_0_225
*233 FILLER_0_0_237
*234 FILLER_0_0_249
*235 FILLER_0_0_253
*236 FILLER_0_0_265
*237 FILLER_0_0_27
*238 FILLER_0_0_277
*239 FILLER_0_0_281
*240 FILLER_0_0_29
*241 FILLER_0_0_293
*242 FILLER_0_0_3
*243 FILLER_0_0_305
*244 FILLER_0_0_309
*245 FILLER_0_0_321
*246 FILLER_0_0_333
*247 FILLER_0_0_337
*248 FILLER_0_0_349
*249 FILLER_0_0_41
*250 FILLER_0_0_53
*251 FILLER_0_0_57
*252 FILLER_0_0_69
*253 FILLER_0_0_81
*254 FILLER_0_0_85
*255 FILLER_0_0_97
*256 FILLER_0_10_109
*257 FILLER_0_10_121
*258 FILLER_0_10_133
*259 FILLER_0_10_139
*260 FILLER_0_10_141
*261 FILLER_0_10_15
*262 FILLER_0_10_153
*263 FILLER_0_10_165
*264 FILLER_0_10_177
*265 FILLER_0_10_189
*266 FILLER_0_10_195
*267 FILLER_0_10_197
*268 FILLER_0_10_209
*269 FILLER_0_10_221
*270 FILLER_0_10_233
*271 FILLER_0_10_245
*272 FILLER_0_10_251
*273 FILLER_0_10_253
*274 FILLER_0_10_265
*275 FILLER_0_10_27
*276 FILLER_0_10_277
*277 FILLER_0_10_289
*278 FILLER_0_10_29
*279 FILLER_0_10_3
*280 FILLER_0_10_301
*281 FILLER_0_10_307
*282 FILLER_0_10_309
*283 FILLER_0_10_321
*284 FILLER_0_10_333
*285 FILLER_0_10_345
*286 FILLER_0_10_41
*287 FILLER_0_10_53
*288 FILLER_0_10_65
*289 FILLER_0_10_77
*290 FILLER_0_10_83
*291 FILLER_0_10_85
*292 FILLER_0_10_97
*293 FILLER_0_11_105
*294 FILLER_0_11_111
*295 FILLER_0_11_113
*296 FILLER_0_11_125
*297 FILLER_0_11_137
*298 FILLER_0_11_149
*299 FILLER_0_11_15
*300 FILLER_0_11_161
*301 FILLER_0_11_167
*302 FILLER_0_11_169
*303 FILLER_0_11_181
*304 FILLER_0_11_193
*305 FILLER_0_11_205
*306 FILLER_0_11_217
*307 FILLER_0_11_223
*308 FILLER_0_11_225
*309 FILLER_0_11_237
*310 FILLER_0_11_249
*311 FILLER_0_11_261
*312 FILLER_0_11_27
*313 FILLER_0_11_273
*314 FILLER_0_11_279
*315 FILLER_0_11_281
*316 FILLER_0_11_293
*317 FILLER_0_11_3
*318 FILLER_0_11_305
*319 FILLER_0_11_317
*320 FILLER_0_11_329
*321 FILLER_0_11_335
*322 FILLER_0_11_337
*323 FILLER_0_11_349
*324 FILLER_0_11_39
*325 FILLER_0_11_51
*326 FILLER_0_11_55
*327 FILLER_0_11_57
*328 FILLER_0_11_69
*329 FILLER_0_11_81
*330 FILLER_0_11_93
*331 FILLER_0_12_109
*332 FILLER_0_12_121
*333 FILLER_0_12_133
*334 FILLER_0_12_139
*335 FILLER_0_12_141
*336 FILLER_0_12_15
*337 FILLER_0_12_153
*338 FILLER_0_12_165
*339 FILLER_0_12_177
*340 FILLER_0_12_189
*341 FILLER_0_12_195
*342 FILLER_0_12_197
*343 FILLER_0_12_209
*344 FILLER_0_12_221
*345 FILLER_0_12_233
*346 FILLER_0_12_245
*347 FILLER_0_12_251
*348 FILLER_0_12_253
*349 FILLER_0_12_265
*350 FILLER_0_12_27
*351 FILLER_0_12_277
*352 FILLER_0_12_289
*353 FILLER_0_12_29
*354 FILLER_0_12_3
*355 FILLER_0_12_301
*356 FILLER_0_12_307
*357 FILLER_0_12_309
*358 FILLER_0_12_321
*359 FILLER_0_12_333
*360 FILLER_0_12_345
*361 FILLER_0_12_41
*362 FILLER_0_12_53
*363 FILLER_0_12_65
*364 FILLER_0_12_77
*365 FILLER_0_12_83
*366 FILLER_0_12_85
*367 FILLER_0_12_97
*368 FILLER_0_13_105
*369 FILLER_0_13_111
*370 FILLER_0_13_113
*371 FILLER_0_13_125
*372 FILLER_0_13_137
*373 FILLER_0_13_149
*374 FILLER_0_13_15
*375 FILLER_0_13_161
*376 FILLER_0_13_167
*377 FILLER_0_13_169
*378 FILLER_0_13_181
*379 FILLER_0_13_193
*380 FILLER_0_13_205
*381 FILLER_0_13_217
*382 FILLER_0_13_223
*383 FILLER_0_13_225
*384 FILLER_0_13_237
*385 FILLER_0_13_249
*386 FILLER_0_13_261
*387 FILLER_0_13_27
*388 FILLER_0_13_273
*389 FILLER_0_13_279
*390 FILLER_0_13_281
*391 FILLER_0_13_293
*392 FILLER_0_13_3
*393 FILLER_0_13_305
*394 FILLER_0_13_317
*395 FILLER_0_13_329
*396 FILLER_0_13_335
*397 FILLER_0_13_337
*398 FILLER_0_13_349
*399 FILLER_0_13_39
*400 FILLER_0_13_51
*401 FILLER_0_13_55
*402 FILLER_0_13_57
*403 FILLER_0_13_69
*404 FILLER_0_13_81
*405 FILLER_0_13_93
*406 FILLER_0_14_109
*407 FILLER_0_14_121
*408 FILLER_0_14_133
*409 FILLER_0_14_139
*410 FILLER_0_14_141
*411 FILLER_0_14_15
*412 FILLER_0_14_153
*413 FILLER_0_14_165
*414 FILLER_0_14_177
*415 FILLER_0_14_189
*416 FILLER_0_14_195
*417 FILLER_0_14_197
*418 FILLER_0_14_209
*419 FILLER_0_14_221
*420 FILLER_0_14_233
*421 FILLER_0_14_245
*422 FILLER_0_14_251
*423 FILLER_0_14_253
*424 FILLER_0_14_265
*425 FILLER_0_14_27
*426 FILLER_0_14_277
*427 FILLER_0_14_289
*428 FILLER_0_14_29
*429 FILLER_0_14_3
*430 FILLER_0_14_301
*431 FILLER_0_14_307
*432 FILLER_0_14_309
*433 FILLER_0_14_321
*434 FILLER_0_14_333
*435 FILLER_0_14_345
*436 FILLER_0_14_41
*437 FILLER_0_14_53
*438 FILLER_0_14_65
*439 FILLER_0_14_77
*440 FILLER_0_14_83
*441 FILLER_0_14_85
*442 FILLER_0_14_97
*443 FILLER_0_15_105
*444 FILLER_0_15_111
*445 FILLER_0_15_113
*446 FILLER_0_15_125
*447 FILLER_0_15_137
*448 FILLER_0_15_149
*449 FILLER_0_15_15
*450 FILLER_0_15_161
*451 FILLER_0_15_167
*452 FILLER_0_15_169
*453 FILLER_0_15_181
*454 FILLER_0_15_193
*455 FILLER_0_15_205
*456 FILLER_0_15_217
*457 FILLER_0_15_223
*458 FILLER_0_15_225
*459 FILLER_0_15_237
*460 FILLER_0_15_249
*461 FILLER_0_15_261
*462 FILLER_0_15_27
*463 FILLER_0_15_273
*464 FILLER_0_15_279
*465 FILLER_0_15_281
*466 FILLER_0_15_293
*467 FILLER_0_15_3
*468 FILLER_0_15_305
*469 FILLER_0_15_317
*470 FILLER_0_15_329
*471 FILLER_0_15_335
*472 FILLER_0_15_337
*473 FILLER_0_15_349
*474 FILLER_0_15_39
*475 FILLER_0_15_51
*476 FILLER_0_15_55
*477 FILLER_0_15_57
*478 FILLER_0_15_69
*479 FILLER_0_15_81
*480 FILLER_0_15_93
*481 FILLER_0_16_109
*482 FILLER_0_16_121
*483 FILLER_0_16_133
*484 FILLER_0_16_139
*485 FILLER_0_16_141
*486 FILLER_0_16_15
*487 FILLER_0_16_153
*488 FILLER_0_16_165
*489 FILLER_0_16_177
*490 FILLER_0_16_189
*491 FILLER_0_16_195
*492 FILLER_0_16_197
*493 FILLER_0_16_209
*494 FILLER_0_16_221
*495 FILLER_0_16_233
*496 FILLER_0_16_245
*497 FILLER_0_16_251
*498 FILLER_0_16_253
*499 FILLER_0_16_265
*500 FILLER_0_16_27
*501 FILLER_0_16_277
*502 FILLER_0_16_289
*503 FILLER_0_16_29
*504 FILLER_0_16_3
*505 FILLER_0_16_301
*506 FILLER_0_16_307
*507 FILLER_0_16_309
*508 FILLER_0_16_321
*509 FILLER_0_16_333
*510 FILLER_0_16_345
*511 FILLER_0_16_41
*512 FILLER_0_16_53
*513 FILLER_0_16_65
*514 FILLER_0_16_77
*515 FILLER_0_16_83
*516 FILLER_0_16_85
*517 FILLER_0_16_97
*518 FILLER_0_17_105
*519 FILLER_0_17_111
*520 FILLER_0_17_113
*521 FILLER_0_17_125
*522 FILLER_0_17_137
*523 FILLER_0_17_149
*524 FILLER_0_17_15
*525 FILLER_0_17_161
*526 FILLER_0_17_167
*527 FILLER_0_17_169
*528 FILLER_0_17_181
*529 FILLER_0_17_193
*530 FILLER_0_17_205
*531 FILLER_0_17_217
*532 FILLER_0_17_223
*533 FILLER_0_17_225
*534 FILLER_0_17_237
*535 FILLER_0_17_249
*536 FILLER_0_17_261
*537 FILLER_0_17_27
*538 FILLER_0_17_273
*539 FILLER_0_17_279
*540 FILLER_0_17_281
*541 FILLER_0_17_293
*542 FILLER_0_17_3
*543 FILLER_0_17_305
*544 FILLER_0_17_317
*545 FILLER_0_17_329
*546 FILLER_0_17_335
*547 FILLER_0_17_337
*548 FILLER_0_17_349
*549 FILLER_0_17_39
*550 FILLER_0_17_51
*551 FILLER_0_17_55
*552 FILLER_0_17_57
*553 FILLER_0_17_69
*554 FILLER_0_17_81
*555 FILLER_0_17_93
*556 FILLER_0_18_109
*557 FILLER_0_18_121
*558 FILLER_0_18_133
*559 FILLER_0_18_139
*560 FILLER_0_18_141
*561 FILLER_0_18_15
*562 FILLER_0_18_153
*563 FILLER_0_18_165
*564 FILLER_0_18_177
*565 FILLER_0_18_189
*566 FILLER_0_18_195
*567 FILLER_0_18_197
*568 FILLER_0_18_209
*569 FILLER_0_18_221
*570 FILLER_0_18_233
*571 FILLER_0_18_245
*572 FILLER_0_18_251
*573 FILLER_0_18_253
*574 FILLER_0_18_265
*575 FILLER_0_18_27
*576 FILLER_0_18_277
*577 FILLER_0_18_289
*578 FILLER_0_18_29
*579 FILLER_0_18_3
*580 FILLER_0_18_301
*581 FILLER_0_18_307
*582 FILLER_0_18_309
*583 FILLER_0_18_321
*584 FILLER_0_18_333
*585 FILLER_0_18_345
*586 FILLER_0_18_41
*587 FILLER_0_18_53
*588 FILLER_0_18_65
*589 FILLER_0_18_77
*590 FILLER_0_18_83
*591 FILLER_0_18_85
*592 FILLER_0_18_97
*593 FILLER_0_19_105
*594 FILLER_0_19_111
*595 FILLER_0_19_113
*596 FILLER_0_19_125
*597 FILLER_0_19_137
*598 FILLER_0_19_149
*599 FILLER_0_19_15
*600 FILLER_0_19_161
*601 FILLER_0_19_167
*602 FILLER_0_19_169
*603 FILLER_0_19_181
*604 FILLER_0_19_193
*605 FILLER_0_19_205
*606 FILLER_0_19_217
*607 FILLER_0_19_223
*608 FILLER_0_19_225
*609 FILLER_0_19_237
*610 FILLER_0_19_249
*611 FILLER_0_19_261
*612 FILLER_0_19_27
*613 FILLER_0_19_273
*614 FILLER_0_19_279
*615 FILLER_0_19_281
*616 FILLER_0_19_293
*617 FILLER_0_19_3
*618 FILLER_0_19_305
*619 FILLER_0_19_317
*620 FILLER_0_19_329
*621 FILLER_0_19_335
*622 FILLER_0_19_337
*623 FILLER_0_19_349
*624 FILLER_0_19_39
*625 FILLER_0_19_51
*626 FILLER_0_19_55
*627 FILLER_0_19_57
*628 FILLER_0_19_69
*629 FILLER_0_19_81
*630 FILLER_0_19_93
*631 FILLER_0_1_105
*632 FILLER_0_1_111
*633 FILLER_0_1_113
*634 FILLER_0_1_125
*635 FILLER_0_1_137
*636 FILLER_0_1_149
*637 FILLER_0_1_15
*638 FILLER_0_1_161
*639 FILLER_0_1_167
*640 FILLER_0_1_169
*641 FILLER_0_1_181
*642 FILLER_0_1_193
*643 FILLER_0_1_205
*644 FILLER_0_1_217
*645 FILLER_0_1_223
*646 FILLER_0_1_225
*647 FILLER_0_1_237
*648 FILLER_0_1_249
*649 FILLER_0_1_261
*650 FILLER_0_1_27
*651 FILLER_0_1_273
*652 FILLER_0_1_279
*653 FILLER_0_1_281
*654 FILLER_0_1_293
*655 FILLER_0_1_3
*656 FILLER_0_1_305
*657 FILLER_0_1_317
*658 FILLER_0_1_329
*659 FILLER_0_1_335
*660 FILLER_0_1_337
*661 FILLER_0_1_349
*662 FILLER_0_1_39
*663 FILLER_0_1_51
*664 FILLER_0_1_55
*665 FILLER_0_1_57
*666 FILLER_0_1_69
*667 FILLER_0_1_81
*668 FILLER_0_1_93
*669 FILLER_0_20_109
*670 FILLER_0_20_121
*671 FILLER_0_20_133
*672 FILLER_0_20_139
*673 FILLER_0_20_141
*674 FILLER_0_20_15
*675 FILLER_0_20_153
*676 FILLER_0_20_165
*677 FILLER_0_20_177
*678 FILLER_0_20_189
*679 FILLER_0_20_195
*680 FILLER_0_20_197
*681 FILLER_0_20_209
*682 FILLER_0_20_221
*683 FILLER_0_20_233
*684 FILLER_0_20_245
*685 FILLER_0_20_251
*686 FILLER_0_20_253
*687 FILLER_0_20_265
*688 FILLER_0_20_27
*689 FILLER_0_20_277
*690 FILLER_0_20_289
*691 FILLER_0_20_29
*692 FILLER_0_20_3
*693 FILLER_0_20_301
*694 FILLER_0_20_307
*695 FILLER_0_20_309
*696 FILLER_0_20_321
*697 FILLER_0_20_333
*698 FILLER_0_20_345
*699 FILLER_0_20_41
*700 FILLER_0_20_53
*701 FILLER_0_20_65
*702 FILLER_0_20_77
*703 FILLER_0_20_83
*704 FILLER_0_20_85
*705 FILLER_0_20_97
*706 FILLER_0_21_105
*707 FILLER_0_21_111
*708 FILLER_0_21_113
*709 FILLER_0_21_125
*710 FILLER_0_21_137
*711 FILLER_0_21_149
*712 FILLER_0_21_15
*713 FILLER_0_21_161
*714 FILLER_0_21_167
*715 FILLER_0_21_169
*716 FILLER_0_21_181
*717 FILLER_0_21_193
*718 FILLER_0_21_205
*719 FILLER_0_21_217
*720 FILLER_0_21_223
*721 FILLER_0_21_225
*722 FILLER_0_21_237
*723 FILLER_0_21_249
*724 FILLER_0_21_261
*725 FILLER_0_21_27
*726 FILLER_0_21_273
*727 FILLER_0_21_279
*728 FILLER_0_21_281
*729 FILLER_0_21_293
*730 FILLER_0_21_3
*731 FILLER_0_21_305
*732 FILLER_0_21_317
*733 FILLER_0_21_329
*734 FILLER_0_21_335
*735 FILLER_0_21_337
*736 FILLER_0_21_349
*737 FILLER_0_21_39
*738 FILLER_0_21_51
*739 FILLER_0_21_55
*740 FILLER_0_21_57
*741 FILLER_0_21_69
*742 FILLER_0_21_81
*743 FILLER_0_21_93
*744 FILLER_0_22_109
*745 FILLER_0_22_121
*746 FILLER_0_22_133
*747 FILLER_0_22_139
*748 FILLER_0_22_141
*749 FILLER_0_22_15
*750 FILLER_0_22_153
*751 FILLER_0_22_165
*752 FILLER_0_22_177
*753 FILLER_0_22_189
*754 FILLER_0_22_195
*755 FILLER_0_22_197
*756 FILLER_0_22_209
*757 FILLER_0_22_221
*758 FILLER_0_22_233
*759 FILLER_0_22_245
*760 FILLER_0_22_251
*761 FILLER_0_22_253
*762 FILLER_0_22_265
*763 FILLER_0_22_27
*764 FILLER_0_22_277
*765 FILLER_0_22_289
*766 FILLER_0_22_29
*767 FILLER_0_22_3
*768 FILLER_0_22_301
*769 FILLER_0_22_307
*770 FILLER_0_22_309
*771 FILLER_0_22_321
*772 FILLER_0_22_333
*773 FILLER_0_22_345
*774 FILLER_0_22_41
*775 FILLER_0_22_53
*776 FILLER_0_22_65
*777 FILLER_0_22_77
*778 FILLER_0_22_83
*779 FILLER_0_22_85
*780 FILLER_0_22_97
*781 FILLER_0_23_105
*782 FILLER_0_23_111
*783 FILLER_0_23_113
*784 FILLER_0_23_125
*785 FILLER_0_23_137
*786 FILLER_0_23_149
*787 FILLER_0_23_15
*788 FILLER_0_23_161
*789 FILLER_0_23_167
*790 FILLER_0_23_169
*791 FILLER_0_23_181
*792 FILLER_0_23_193
*793 FILLER_0_23_205
*794 FILLER_0_23_217
*795 FILLER_0_23_223
*796 FILLER_0_23_225
*797 FILLER_0_23_237
*798 FILLER_0_23_249
*799 FILLER_0_23_261
*800 FILLER_0_23_27
*801 FILLER_0_23_273
*802 FILLER_0_23_279
*803 FILLER_0_23_281
*804 FILLER_0_23_293
*805 FILLER_0_23_3
*806 FILLER_0_23_305
*807 FILLER_0_23_317
*808 FILLER_0_23_329
*809 FILLER_0_23_335
*810 FILLER_0_23_337
*811 FILLER_0_23_349
*812 FILLER_0_23_39
*813 FILLER_0_23_51
*814 FILLER_0_23_55
*815 FILLER_0_23_57
*816 FILLER_0_23_69
*817 FILLER_0_23_81
*818 FILLER_0_23_93
*819 FILLER_0_24_109
*820 FILLER_0_24_121
*821 FILLER_0_24_133
*822 FILLER_0_24_139
*823 FILLER_0_24_141
*824 FILLER_0_24_15
*825 FILLER_0_24_153
*826 FILLER_0_24_165
*827 FILLER_0_24_177
*828 FILLER_0_24_189
*829 FILLER_0_24_195
*830 FILLER_0_24_197
*831 FILLER_0_24_209
*832 FILLER_0_24_221
*833 FILLER_0_24_233
*834 FILLER_0_24_245
*835 FILLER_0_24_251
*836 FILLER_0_24_253
*837 FILLER_0_24_265
*838 FILLER_0_24_27
*839 FILLER_0_24_277
*840 FILLER_0_24_289
*841 FILLER_0_24_29
*842 FILLER_0_24_3
*843 FILLER_0_24_301
*844 FILLER_0_24_307
*845 FILLER_0_24_309
*846 FILLER_0_24_321
*847 FILLER_0_24_333
*848 FILLER_0_24_345
*849 FILLER_0_24_41
*850 FILLER_0_24_53
*851 FILLER_0_24_65
*852 FILLER_0_24_77
*853 FILLER_0_24_83
*854 FILLER_0_24_85
*855 FILLER_0_24_97
*856 FILLER_0_25_105
*857 FILLER_0_25_111
*858 FILLER_0_25_113
*859 FILLER_0_25_125
*860 FILLER_0_25_137
*861 FILLER_0_25_149
*862 FILLER_0_25_15
*863 FILLER_0_25_161
*864 FILLER_0_25_167
*865 FILLER_0_25_169
*866 FILLER_0_25_181
*867 FILLER_0_25_193
*868 FILLER_0_25_205
*869 FILLER_0_25_217
*870 FILLER_0_25_223
*871 FILLER_0_25_225
*872 FILLER_0_25_237
*873 FILLER_0_25_249
*874 FILLER_0_25_261
*875 FILLER_0_25_27
*876 FILLER_0_25_273
*877 FILLER_0_25_279
*878 FILLER_0_25_281
*879 FILLER_0_25_293
*880 FILLER_0_25_3
*881 FILLER_0_25_305
*882 FILLER_0_25_317
*883 FILLER_0_25_329
*884 FILLER_0_25_335
*885 FILLER_0_25_337
*886 FILLER_0_25_349
*887 FILLER_0_25_39
*888 FILLER_0_25_51
*889 FILLER_0_25_55
*890 FILLER_0_25_57
*891 FILLER_0_25_69
*892 FILLER_0_25_81
*893 FILLER_0_25_93
*894 FILLER_0_26_109
*895 FILLER_0_26_121
*896 FILLER_0_26_133
*897 FILLER_0_26_139
*898 FILLER_0_26_141
*899 FILLER_0_26_15
*900 FILLER_0_26_153
*901 FILLER_0_26_165
*902 FILLER_0_26_177
*903 FILLER_0_26_185
*904 FILLER_0_26_195
*905 FILLER_0_26_197
*906 FILLER_0_26_209
*907 FILLER_0_26_221
*908 FILLER_0_26_229
*909 FILLER_0_26_239
*910 FILLER_0_26_243
*911 FILLER_0_26_247
*912 FILLER_0_26_251
*913 FILLER_0_26_261
*914 FILLER_0_26_27
*915 FILLER_0_26_273
*916 FILLER_0_26_285
*917 FILLER_0_26_29
*918 FILLER_0_26_297
*919 FILLER_0_26_3
*920 FILLER_0_26_305
*921 FILLER_0_26_309
*922 FILLER_0_26_321
*923 FILLER_0_26_333
*924 FILLER_0_26_345
*925 FILLER_0_26_41
*926 FILLER_0_26_53
*927 FILLER_0_26_65
*928 FILLER_0_26_77
*929 FILLER_0_26_83
*930 FILLER_0_26_85
*931 FILLER_0_26_97
*932 FILLER_0_27_105
*933 FILLER_0_27_111
*934 FILLER_0_27_113
*935 FILLER_0_27_125
*936 FILLER_0_27_137
*937 FILLER_0_27_145
*938 FILLER_0_27_15
*939 FILLER_0_27_169
*940 FILLER_0_27_181
*941 FILLER_0_27_202
*942 FILLER_0_27_214
*943 FILLER_0_27_223
*944 FILLER_0_27_225
*945 FILLER_0_27_234
*946 FILLER_0_27_27
*947 FILLER_0_27_276
*948 FILLER_0_27_281
*949 FILLER_0_27_293
*950 FILLER_0_27_3
*951 FILLER_0_27_305
*952 FILLER_0_27_317
*953 FILLER_0_27_329
*954 FILLER_0_27_335
*955 FILLER_0_27_337
*956 FILLER_0_27_349
*957 FILLER_0_27_39
*958 FILLER_0_27_51
*959 FILLER_0_27_55
*960 FILLER_0_27_57
*961 FILLER_0_27_69
*962 FILLER_0_27_81
*963 FILLER_0_27_93
*964 FILLER_0_28_109
*965 FILLER_0_28_121
*966 FILLER_0_28_133
*967 FILLER_0_28_139
*968 FILLER_0_28_141
*969 FILLER_0_28_147
*970 FILLER_0_28_15
*971 FILLER_0_28_155
*972 FILLER_0_28_159
*973 FILLER_0_28_168
*974 FILLER_0_28_187
*975 FILLER_0_28_27
*976 FILLER_0_28_29
*977 FILLER_0_28_293
*978 FILLER_0_28_3
*979 FILLER_0_28_305
*980 FILLER_0_28_309
*981 FILLER_0_28_315
*982 FILLER_0_28_323
*983 FILLER_0_28_330
*984 FILLER_0_28_342
*985 FILLER_0_28_350
*986 FILLER_0_28_41
*987 FILLER_0_28_53
*988 FILLER_0_28_65
*989 FILLER_0_28_77
*990 FILLER_0_28_83
*991 FILLER_0_28_85
*992 FILLER_0_28_97
*993 FILLER_0_29_105
*994 FILLER_0_29_111
*995 FILLER_0_29_133
*996 FILLER_0_29_145
*997 FILLER_0_29_15
*998 FILLER_0_29_172
*999 FILLER_0_29_185
*1000 FILLER_0_29_206
*1001 FILLER_0_29_214
*1002 FILLER_0_29_219
*1003 FILLER_0_29_223
*1004 FILLER_0_29_225
*1005 FILLER_0_29_237
*1006 FILLER_0_29_254
*1007 FILLER_0_29_262
*1008 FILLER_0_29_27
*1009 FILLER_0_29_278
*1010 FILLER_0_29_281
*1011 FILLER_0_29_293
*1012 FILLER_0_29_3
*1013 FILLER_0_29_333
*1014 FILLER_0_29_337
*1015 FILLER_0_29_349
*1016 FILLER_0_29_39
*1017 FILLER_0_29_51
*1018 FILLER_0_29_55
*1019 FILLER_0_29_57
*1020 FILLER_0_29_69
*1021 FILLER_0_29_81
*1022 FILLER_0_29_93
*1023 FILLER_0_2_109
*1024 FILLER_0_2_121
*1025 FILLER_0_2_133
*1026 FILLER_0_2_139
*1027 FILLER_0_2_141
*1028 FILLER_0_2_15
*1029 FILLER_0_2_153
*1030 FILLER_0_2_165
*1031 FILLER_0_2_177
*1032 FILLER_0_2_189
*1033 FILLER_0_2_195
*1034 FILLER_0_2_197
*1035 FILLER_0_2_209
*1036 FILLER_0_2_221
*1037 FILLER_0_2_233
*1038 FILLER_0_2_245
*1039 FILLER_0_2_251
*1040 FILLER_0_2_253
*1041 FILLER_0_2_265
*1042 FILLER_0_2_27
*1043 FILLER_0_2_277
*1044 FILLER_0_2_289
*1045 FILLER_0_2_29
*1046 FILLER_0_2_3
*1047 FILLER_0_2_301
*1048 FILLER_0_2_307
*1049 FILLER_0_2_309
*1050 FILLER_0_2_321
*1051 FILLER_0_2_333
*1052 FILLER_0_2_345
*1053 FILLER_0_2_41
*1054 FILLER_0_2_53
*1055 FILLER_0_2_65
*1056 FILLER_0_2_77
*1057 FILLER_0_2_83
*1058 FILLER_0_2_85
*1059 FILLER_0_2_97
*1060 FILLER_0_30_105
*1061 FILLER_0_30_135
*1062 FILLER_0_30_141
*1063 FILLER_0_30_15
*1064 FILLER_0_30_176
*1065 FILLER_0_30_181
*1066 FILLER_0_30_197
*1067 FILLER_0_30_207
*1068 FILLER_0_30_219
*1069 FILLER_0_30_231
*1070 FILLER_0_30_261
*1071 FILLER_0_30_27
*1072 FILLER_0_30_29
*1073 FILLER_0_30_295
*1074 FILLER_0_30_3
*1075 FILLER_0_30_301
*1076 FILLER_0_30_336
*1077 FILLER_0_30_348
*1078 FILLER_0_30_41
*1079 FILLER_0_30_53
*1080 FILLER_0_30_65
*1081 FILLER_0_30_77
*1082 FILLER_0_30_83
*1083 FILLER_0_30_85
*1084 FILLER_0_30_97
*1085 FILLER_0_31_105
*1086 FILLER_0_31_111
*1087 FILLER_0_31_123
*1088 FILLER_0_31_140
*1089 FILLER_0_31_144
*1090 FILLER_0_31_15
*1091 FILLER_0_31_165
*1092 FILLER_0_31_169
*1093 FILLER_0_31_181
*1094 FILLER_0_31_189
*1095 FILLER_0_31_219
*1096 FILLER_0_31_223
*1097 FILLER_0_31_225
*1098 FILLER_0_31_229
*1099 FILLER_0_31_253
*1100 FILLER_0_31_261
*1101 FILLER_0_31_27
*1102 FILLER_0_31_274
*1103 FILLER_0_31_281
*1104 FILLER_0_31_298
*1105 FILLER_0_31_3
*1106 FILLER_0_31_348
*1107 FILLER_0_31_39
*1108 FILLER_0_31_51
*1109 FILLER_0_31_55
*1110 FILLER_0_31_57
*1111 FILLER_0_31_69
*1112 FILLER_0_31_81
*1113 FILLER_0_31_93
*1114 FILLER_0_32_105
*1115 FILLER_0_32_136
*1116 FILLER_0_32_141
*1117 FILLER_0_32_149
*1118 FILLER_0_32_15
*1119 FILLER_0_32_155
*1120 FILLER_0_32_163
*1121 FILLER_0_32_184
*1122 FILLER_0_32_188
*1123 FILLER_0_32_217
*1124 FILLER_0_32_229
*1125 FILLER_0_32_235
*1126 FILLER_0_32_241
*1127 FILLER_0_32_249
*1128 FILLER_0_32_27
*1129 FILLER_0_32_273
*1130 FILLER_0_32_29
*1131 FILLER_0_32_294
*1132 FILLER_0_32_3
*1133 FILLER_0_32_306
*1134 FILLER_0_32_309
*1135 FILLER_0_32_336
*1136 FILLER_0_32_346
*1137 FILLER_0_32_350
*1138 FILLER_0_32_41
*1139 FILLER_0_32_53
*1140 FILLER_0_32_65
*1141 FILLER_0_32_77
*1142 FILLER_0_32_83
*1143 FILLER_0_32_85
*1144 FILLER_0_32_97
*1145 FILLER_0_33_107
*1146 FILLER_0_33_111
*1147 FILLER_0_33_113
*1148 FILLER_0_33_137
*1149 FILLER_0_33_149
*1150 FILLER_0_33_15
*1151 FILLER_0_33_161
*1152 FILLER_0_33_167
*1153 FILLER_0_33_169
*1154 FILLER_0_33_176
*1155 FILLER_0_33_186
*1156 FILLER_0_33_228
*1157 FILLER_0_33_258
*1158 FILLER_0_33_27
*1159 FILLER_0_33_270
*1160 FILLER_0_33_278
*1161 FILLER_0_33_289
*1162 FILLER_0_33_3
*1163 FILLER_0_33_301
*1164 FILLER_0_33_313
*1165 FILLER_0_33_332
*1166 FILLER_0_33_343
*1167 FILLER_0_33_39
*1168 FILLER_0_33_51
*1169 FILLER_0_33_55
*1170 FILLER_0_33_57
*1171 FILLER_0_33_69
*1172 FILLER_0_33_81
*1173 FILLER_0_34_118
*1174 FILLER_0_34_139
*1175 FILLER_0_34_141
*1176 FILLER_0_34_148
*1177 FILLER_0_34_15
*1178 FILLER_0_34_160
*1179 FILLER_0_34_175
*1180 FILLER_0_34_182
*1181 FILLER_0_34_194
*1182 FILLER_0_34_253
*1183 FILLER_0_34_265
*1184 FILLER_0_34_27
*1185 FILLER_0_34_277
*1186 FILLER_0_34_289
*1187 FILLER_0_34_29
*1188 FILLER_0_34_3
*1189 FILLER_0_34_301
*1190 FILLER_0_34_307
*1191 FILLER_0_34_309
*1192 FILLER_0_34_321
*1193 FILLER_0_34_333
*1194 FILLER_0_34_345
*1195 FILLER_0_34_41
*1196 FILLER_0_34_53
*1197 FILLER_0_34_65
*1198 FILLER_0_34_73
*1199 FILLER_0_34_81
*1200 FILLER_0_34_85
*1201 FILLER_0_34_93
*1202 FILLER_0_34_97
*1203 FILLER_0_35_109
*1204 FILLER_0_35_143
*1205 FILLER_0_35_148
*1206 FILLER_0_35_15
*1207 FILLER_0_35_165
*1208 FILLER_0_35_169
*1209 FILLER_0_35_181
*1210 FILLER_0_35_211
*1211 FILLER_0_35_253
*1212 FILLER_0_35_265
*1213 FILLER_0_35_27
*1214 FILLER_0_35_277
*1215 FILLER_0_35_281
*1216 FILLER_0_35_293
*1217 FILLER_0_35_3
*1218 FILLER_0_35_305
*1219 FILLER_0_35_317
*1220 FILLER_0_35_329
*1221 FILLER_0_35_335
*1222 FILLER_0_35_337
*1223 FILLER_0_35_349
*1224 FILLER_0_35_39
*1225 FILLER_0_35_51
*1226 FILLER_0_35_55
*1227 FILLER_0_35_57
*1228 FILLER_0_35_69
*1229 FILLER_0_35_73
*1230 FILLER_0_35_97
*1231 FILLER_0_36_103
*1232 FILLER_0_36_109
*1233 FILLER_0_36_117
*1234 FILLER_0_36_125
*1235 FILLER_0_36_131
*1236 FILLER_0_36_139
*1237 FILLER_0_36_141
*1238 FILLER_0_36_15
*1239 FILLER_0_36_165
*1240 FILLER_0_36_177
*1241 FILLER_0_36_189
*1242 FILLER_0_36_200
*1243 FILLER_0_36_232
*1244 FILLER_0_36_242
*1245 FILLER_0_36_250
*1246 FILLER_0_36_253
*1247 FILLER_0_36_265
*1248 FILLER_0_36_27
*1249 FILLER_0_36_277
*1250 FILLER_0_36_289
*1251 FILLER_0_36_29
*1252 FILLER_0_36_3
*1253 FILLER_0_36_301
*1254 FILLER_0_36_307
*1255 FILLER_0_36_309
*1256 FILLER_0_36_321
*1257 FILLER_0_36_333
*1258 FILLER_0_36_345
*1259 FILLER_0_36_41
*1260 FILLER_0_36_53
*1261 FILLER_0_36_65
*1262 FILLER_0_36_71
*1263 FILLER_0_36_79
*1264 FILLER_0_36_83
*1265 FILLER_0_37_109
*1266 FILLER_0_37_113
*1267 FILLER_0_37_123
*1268 FILLER_0_37_135
*1269 FILLER_0_37_143
*1270 FILLER_0_37_15
*1271 FILLER_0_37_175
*1272 FILLER_0_37_212
*1273 FILLER_0_37_222
*1274 FILLER_0_37_228
*1275 FILLER_0_37_257
*1276 FILLER_0_37_269
*1277 FILLER_0_37_27
*1278 FILLER_0_37_277
*1279 FILLER_0_37_281
*1280 FILLER_0_37_293
*1281 FILLER_0_37_3
*1282 FILLER_0_37_305
*1283 FILLER_0_37_317
*1284 FILLER_0_37_329
*1285 FILLER_0_37_335
*1286 FILLER_0_37_337
*1287 FILLER_0_37_349
*1288 FILLER_0_37_39
*1289 FILLER_0_37_51
*1290 FILLER_0_37_55
*1291 FILLER_0_37_57
*1292 FILLER_0_38_100
*1293 FILLER_0_38_106
*1294 FILLER_0_38_120
*1295 FILLER_0_38_132
*1296 FILLER_0_38_14
*1297 FILLER_0_38_144
*1298 FILLER_0_38_150
*1299 FILLER_0_38_166
*1300 FILLER_0_38_169
*1301 FILLER_0_38_174
*1302 FILLER_0_38_178
*1303 FILLER_0_38_18
*1304 FILLER_0_38_182
*1305 FILLER_0_38_186
*1306 FILLER_0_38_190
*1307 FILLER_0_38_204
*1308 FILLER_0_38_216
*1309 FILLER_0_38_22
*1310 FILLER_0_38_225
*1311 FILLER_0_38_237
*1312 FILLER_0_38_242
*1313 FILLER_0_38_250
*1314 FILLER_0_38_253
*1315 FILLER_0_38_265
*1316 FILLER_0_38_277
*1317 FILLER_0_38_281
*1318 FILLER_0_38_293
*1319 FILLER_0_38_3
*1320 FILLER_0_38_305
*1321 FILLER_0_38_309
*1322 FILLER_0_38_32
*1323 FILLER_0_38_321
*1324 FILLER_0_38_326
*1325 FILLER_0_38_334
*1326 FILLER_0_38_341
*1327 FILLER_0_38_349
*1328 FILLER_0_38_38
*1329 FILLER_0_38_42
*1330 FILLER_0_38_46
*1331 FILLER_0_38_50
*1332 FILLER_0_38_54
*1333 FILLER_0_38_57
*1334 FILLER_0_38_62
*1335 FILLER_0_38_66
*1336 FILLER_0_38_70
*1337 FILLER_0_38_82
*1338 FILLER_0_38_85
*1339 FILLER_0_3_105
*1340 FILLER_0_3_111
*1341 FILLER_0_3_113
*1342 FILLER_0_3_125
*1343 FILLER_0_3_137
*1344 FILLER_0_3_149
*1345 FILLER_0_3_15
*1346 FILLER_0_3_161
*1347 FILLER_0_3_167
*1348 FILLER_0_3_169
*1349 FILLER_0_3_181
*1350 FILLER_0_3_193
*1351 FILLER_0_3_205
*1352 FILLER_0_3_217
*1353 FILLER_0_3_223
*1354 FILLER_0_3_225
*1355 FILLER_0_3_237
*1356 FILLER_0_3_249
*1357 FILLER_0_3_261
*1358 FILLER_0_3_27
*1359 FILLER_0_3_273
*1360 FILLER_0_3_279
*1361 FILLER_0_3_281
*1362 FILLER_0_3_293
*1363 FILLER_0_3_3
*1364 FILLER_0_3_305
*1365 FILLER_0_3_317
*1366 FILLER_0_3_329
*1367 FILLER_0_3_335
*1368 FILLER_0_3_337
*1369 FILLER_0_3_349
*1370 FILLER_0_3_39
*1371 FILLER_0_3_51
*1372 FILLER_0_3_55
*1373 FILLER_0_3_57
*1374 FILLER_0_3_69
*1375 FILLER_0_3_81
*1376 FILLER_0_3_93
*1377 FILLER_0_4_109
*1378 FILLER_0_4_121
*1379 FILLER_0_4_133
*1380 FILLER_0_4_139
*1381 FILLER_0_4_141
*1382 FILLER_0_4_15
*1383 FILLER_0_4_153
*1384 FILLER_0_4_165
*1385 FILLER_0_4_177
*1386 FILLER_0_4_189
*1387 FILLER_0_4_195
*1388 FILLER_0_4_197
*1389 FILLER_0_4_209
*1390 FILLER_0_4_221
*1391 FILLER_0_4_233
*1392 FILLER_0_4_245
*1393 FILLER_0_4_251
*1394 FILLER_0_4_253
*1395 FILLER_0_4_265
*1396 FILLER_0_4_27
*1397 FILLER_0_4_277
*1398 FILLER_0_4_289
*1399 FILLER_0_4_29
*1400 FILLER_0_4_3
*1401 FILLER_0_4_301
*1402 FILLER_0_4_307
*1403 FILLER_0_4_309
*1404 FILLER_0_4_321
*1405 FILLER_0_4_333
*1406 FILLER_0_4_345
*1407 FILLER_0_4_41
*1408 FILLER_0_4_53
*1409 FILLER_0_4_65
*1410 FILLER_0_4_77
*1411 FILLER_0_4_83
*1412 FILLER_0_4_85
*1413 FILLER_0_4_97
*1414 FILLER_0_5_105
*1415 FILLER_0_5_111
*1416 FILLER_0_5_113
*1417 FILLER_0_5_125
*1418 FILLER_0_5_137
*1419 FILLER_0_5_149
*1420 FILLER_0_5_15
*1421 FILLER_0_5_161
*1422 FILLER_0_5_167
*1423 FILLER_0_5_169
*1424 FILLER_0_5_181
*1425 FILLER_0_5_193
*1426 FILLER_0_5_205
*1427 FILLER_0_5_217
*1428 FILLER_0_5_223
*1429 FILLER_0_5_225
*1430 FILLER_0_5_237
*1431 FILLER_0_5_249
*1432 FILLER_0_5_261
*1433 FILLER_0_5_27
*1434 FILLER_0_5_273
*1435 FILLER_0_5_279
*1436 FILLER_0_5_281
*1437 FILLER_0_5_293
*1438 FILLER_0_5_3
*1439 FILLER_0_5_305
*1440 FILLER_0_5_317
*1441 FILLER_0_5_329
*1442 FILLER_0_5_335
*1443 FILLER_0_5_337
*1444 FILLER_0_5_349
*1445 FILLER_0_5_39
*1446 FILLER_0_5_51
*1447 FILLER_0_5_55
*1448 FILLER_0_5_57
*1449 FILLER_0_5_69
*1450 FILLER_0_5_81
*1451 FILLER_0_5_93
*1452 FILLER_0_6_109
*1453 FILLER_0_6_121
*1454 FILLER_0_6_133