*SPEF "ieee 1481-1999"
*DESIGN "tt_um_wokwi_369864099838656513"
*DATE "11:11:11 Fri 11 11, 1111"
*VENDOR "OpenRCX"
*PROGRAM "Parallel Extraction"
*VERSION "1.0"
*DESIGN_FLOW "NAME_SCOPE LOCAL" "PIN_CAP NONE"
*DIVIDER /
*DELIMITER :
*BUS_DELIMITER []
*T_UNIT 1 NS
*C_UNIT 1 PF
*R_UNIT 1 OHM
*L_UNIT 1 HENRY

*NAME_MAP
*3 clk
*4 ena
*5 rst_n
*6 ui_in[0]
*7 ui_in[1]
*8 ui_in[2]
*9 ui_in[3]
*10 ui_in[4]
*11 ui_in[5]
*12 ui_in[6]
*13 ui_in[7]
*14 uio_in[0]
*15 uio_in[1]
*16 uio_in[2]
*17 uio_in[3]
*18 uio_in[4]
*19 uio_in[5]
*20 uio_in[6]
*21 uio_in[7]
*22 net8
*23 net9
*24 net10
*25 net11
*26 net12
*27 net13
*28 net14
*29 net15
*30 net16
*31 net17
*32 net18
*33 net19
*34 net20
*35 net21
*36 net22
*37 net23
*38 uo_out[0]
*39 uo_out[1]
*40 uo_out[2]
*41 uo_out[3]
*42 uo_out[4]
*43 uo_out[5]
*44 uo_out[6]
*45 uo_out[7]
*46 _00_
*47 _01_
*48 _02_
*49 _03_
*50 _04_
*51 _05_
*52 _06_
*53 _07_
*54 _08_
*55 _09_
*56 _10_
*57 _11_
*58 _12_
*59 _13_
*60 _14_
*61 _15_
*62 _16_
*63 _17_
*64 _18_
*65 _19_
*66 and10\.a
*67 and11\.a
*68 and12\.a
*69 and13\.a
*70 and14\.a
*71 and15\.a
*72 and16\.a
*73 and17\.a
*74 and18\.a
*75 and19\.a
*76 and2\.out
*77 and20\.a
*78 and21\.a
*79 and22\.a
*80 and23\.a
*81 and24\.a
*82 and3\.out
*83 and4\.out
*84 and5\.out
*85 and9\.a
*86 clknet_0__08_
*87 clknet_0_and2\.out
*88 clknet_0_and3\.out
*89 clknet_0_and4\.out
*90 clknet_0_and5\.out
*91 clknet_0_clk
*92 clknet_1_0__leaf__08_
*93 clknet_1_0__leaf_and2\.out
*94 clknet_1_0__leaf_and3\.out
*95 clknet_1_0__leaf_and4\.out
*96 clknet_1_0__leaf_and5\.out
*97 clknet_1_0__leaf_clk
*98 clknet_1_1__leaf__08_
*99 clknet_1_1__leaf_and2\.out
*100 clknet_1_1__leaf_and3\.out
*101 clknet_1_1__leaf_and4\.out
*102 clknet_1_1__leaf_and5\.out
*103 clknet_1_1__leaf_clk
*104 flop3\.notq
*105 flop4\.notq
*106 flop5\.notq
*107 flop6\.notq
*108 mux1\.out
*109 mux2\.out
*110 mux3\.out
*111 mux4\.out
*112 net1
*113 net2
*114 net3
*115 net4
*116 net5
*117 net6
*118 net7
*119 FILLER_0_0_109
*120 FILLER_0_0_113
*121 FILLER_0_0_125
*122 FILLER_0_0_137
*123 FILLER_0_0_141
*124 FILLER_0_0_15
*125 FILLER_0_0_153
*126 FILLER_0_0_165
*127 FILLER_0_0_169
*128 FILLER_0_0_181
*129 FILLER_0_0_193
*130 FILLER_0_0_197
*131 FILLER_0_0_209
*132 FILLER_0_0_221
*133 FILLER_0_0_225
*134 FILLER_0_0_237
*135 FILLER_0_0_249
*136 FILLER_0_0_253
*137 FILLER_0_0_265
*138 FILLER_0_0_27
*139 FILLER_0_0_277
*140 FILLER_0_0_281
*141 FILLER_0_0_29
*142 FILLER_0_0_293
*143 FILLER_0_0_3
*144 FILLER_0_0_305
*145 FILLER_0_0_309
*146 FILLER_0_0_321
*147 FILLER_0_0_333
*148 FILLER_0_0_337
*149 FILLER_0_0_349
*150 FILLER_0_0_41
*151 FILLER_0_0_53
*152 FILLER_0_0_57
*153 FILLER_0_0_69
*154 FILLER_0_0_81
*155 FILLER_0_0_85
*156 FILLER_0_0_97
*157 FILLER_0_10_109
*158 FILLER_0_10_121
*159 FILLER_0_10_133
*160 FILLER_0_10_139
*161 FILLER_0_10_141
*162 FILLER_0_10_15
*163 FILLER_0_10_153
*164 FILLER_0_10_165
*165 FILLER_0_10_177
*166 FILLER_0_10_189
*167 FILLER_0_10_195
*168 FILLER_0_10_197
*169 FILLER_0_10_209
*170 FILLER_0_10_221
*171 FILLER_0_10_233
*172 FILLER_0_10_245
*173 FILLER_0_10_251
*174 FILLER_0_10_253
*175 FILLER_0_10_265
*176 FILLER_0_10_27
*177 FILLER_0_10_277
*178 FILLER_0_10_289
*179 FILLER_0_10_29
*180 FILLER_0_10_3
*181 FILLER_0_10_301
*182 FILLER_0_10_307
*183 FILLER_0_10_309
*184 FILLER_0_10_321
*185 FILLER_0_10_333
*186 FILLER_0_10_345
*187 FILLER_0_10_41
*188 FILLER_0_10_53
*189 FILLER_0_10_65
*190 FILLER_0_10_77
*191 FILLER_0_10_83
*192 FILLER_0_10_85
*193 FILLER_0_10_97
*194 FILLER_0_11_105
*195 FILLER_0_11_111
*196 FILLER_0_11_113
*197 FILLER_0_11_125
*198 FILLER_0_11_137
*199 FILLER_0_11_149
*200 FILLER_0_11_15
*201 FILLER_0_11_161
*202 FILLER_0_11_167
*203 FILLER_0_11_169
*204 FILLER_0_11_181
*205 FILLER_0_11_193
*206 FILLER_0_11_205
*207 FILLER_0_11_217
*208 FILLER_0_11_223
*209 FILLER_0_11_225
*210 FILLER_0_11_237
*211 FILLER_0_11_249
*212 FILLER_0_11_261
*213 FILLER_0_11_27
*214 FILLER_0_11_273
*215 FILLER_0_11_279
*216 FILLER_0_11_281
*217 FILLER_0_11_293
*218 FILLER_0_11_3
*219 FILLER_0_11_305
*220 FILLER_0_11_317
*221 FILLER_0_11_329
*222 FILLER_0_11_335
*223 FILLER_0_11_337
*224 FILLER_0_11_349
*225 FILLER_0_11_39
*226 FILLER_0_11_51
*227 FILLER_0_11_55
*228 FILLER_0_11_57
*229 FILLER_0_11_69
*230 FILLER_0_11_81
*231 FILLER_0_11_93
*232 FILLER_0_12_109
*233 FILLER_0_12_121
*234 FILLER_0_12_133
*235 FILLER_0_12_139
*236 FILLER_0_12_141
*237 FILLER_0_12_15
*238 FILLER_0_12_153
*239 FILLER_0_12_165
*240 FILLER_0_12_177
*241 FILLER_0_12_189
*242 FILLER_0_12_195
*243 FILLER_0_12_197
*244 FILLER_0_12_209
*245 FILLER_0_12_221
*246 FILLER_0_12_233
*247 FILLER_0_12_245
*248 FILLER_0_12_251
*249 FILLER_0_12_253
*250 FILLER_0_12_265
*251 FILLER_0_12_27
*252 FILLER_0_12_277
*253 FILLER_0_12_289
*254 FILLER_0_12_29
*255 FILLER_0_12_3
*256 FILLER_0_12_301
*257 FILLER_0_12_307
*258 FILLER_0_12_309
*259 FILLER_0_12_321
*260 FILLER_0_12_333
*261 FILLER_0_12_345
*262 FILLER_0_12_41
*263 FILLER_0_12_53
*264 FILLER_0_12_65
*265 FILLER_0_12_77
*266 FILLER_0_12_83
*267 FILLER_0_12_85
*268 FILLER_0_12_97
*269 FILLER_0_13_105
*270 FILLER_0_13_111
*271 FILLER_0_13_113
*272 FILLER_0_13_125
*273 FILLER_0_13_137
*274 FILLER_0_13_149
*275 FILLER_0_13_15
*276 FILLER_0_13_161
*277 FILLER_0_13_167
*278 FILLER_0_13_169
*279 FILLER_0_13_181
*280 FILLER_0_13_193
*281 FILLER_0_13_205
*282 FILLER_0_13_217
*283 FILLER_0_13_223
*284 FILLER_0_13_225
*285 FILLER_0_13_237
*286 FILLER_0_13_249
*287 FILLER_0_13_261
*288 FILLER_0_13_27
*289 FILLER_0_13_273
*290 FILLER_0_13_279
*291 FILLER_0_13_281
*292 FILLER_0_13_293
*293 FILLER_0_13_3
*294 FILLER_0_13_305
*295 FILLER_0_13_317
*296 FILLER_0_13_329
*297 FILLER_0_13_335
*298 FILLER_0_13_337
*299 FILLER_0_13_349
*300 FILLER_0_13_39
*301 FILLER_0_13_51
*302 FILLER_0_13_55
*303 FILLER_0_13_57
*304 FILLER_0_13_69
*305 FILLER_0_13_81
*306 FILLER_0_13_93
*307 FILLER_0_14_109
*308 FILLER_0_14_121
*309 FILLER_0_14_133
*310 FILLER_0_14_139
*311 FILLER_0_14_141
*312 FILLER_0_14_15
*313 FILLER_0_14_153
*314 FILLER_0_14_165
*315 FILLER_0_14_177
*316 FILLER_0_14_189
*317 FILLER_0_14_195
*318 FILLER_0_14_197
*319 FILLER_0_14_209
*320 FILLER_0_14_221
*321 FILLER_0_14_233
*322 FILLER_0_14_245
*323 FILLER_0_14_251
*324 FILLER_0_14_253
*325 FILLER_0_14_265
*326 FILLER_0_14_27
*327 FILLER_0_14_277
*328 FILLER_0_14_289
*329 FILLER_0_14_29
*330 FILLER_0_14_3
*331 FILLER_0_14_301
*332 FILLER_0_14_307
*333 FILLER_0_14_309
*334 FILLER_0_14_321
*335 FILLER_0_14_333
*336 FILLER_0_14_345
*337 FILLER_0_14_41
*338 FILLER_0_14_53
*339 FILLER_0_14_65
*340 FILLER_0_14_77
*341 FILLER_0_14_83
*342 FILLER_0_14_85
*343 FILLER_0_14_97
*344 FILLER_0_15_105
*345 FILLER_0_15_111
*346 FILLER_0_15_113
*347 FILLER_0_15_125
*348 FILLER_0_15_137
*349 FILLER_0_15_149
*350 FILLER_0_15_15
*351 FILLER_0_15_161
*352 FILLER_0_15_167
*353 FILLER_0_15_169
*354 FILLER_0_15_181
*355 FILLER_0_15_193
*356 FILLER_0_15_205
*357 FILLER_0_15_217
*358 FILLER_0_15_223
*359 FILLER_0_15_225
*360 FILLER_0_15_237
*361 FILLER_0_15_249
*362 FILLER_0_15_261
*363 FILLER_0_15_27
*364 FILLER_0_15_273
*365 FILLER_0_15_279
*366 FILLER_0_15_281
*367 FILLER_0_15_293
*368 FILLER_0_15_3
*369 FILLER_0_15_305
*370 FILLER_0_15_317
*371 FILLER_0_15_329
*372 FILLER_0_15_335
*373 FILLER_0_15_337
*374 FILLER_0_15_349
*375 FILLER_0_15_39
*376 FILLER_0_15_51
*377 FILLER_0_15_55
*378 FILLER_0_15_57
*379 FILLER_0_15_69
*380 FILLER_0_15_81
*381 FILLER_0_15_93
*382 FILLER_0_16_109
*383 FILLER_0_16_121
*384 FILLER_0_16_133
*385 FILLER_0_16_139
*386 FILLER_0_16_141
*387 FILLER_0_16_15
*388 FILLER_0_16_153
*389 FILLER_0_16_165
*390 FILLER_0_16_177
*391 FILLER_0_16_189
*392 FILLER_0_16_195
*393 FILLER_0_16_197
*394 FILLER_0_16_209
*395 FILLER_0_16_221
*396 FILLER_0_16_233
*397 FILLER_0_16_245
*398 FILLER_0_16_251
*399 FILLER_0_16_253
*400 FILLER_0_16_265
*401 FILLER_0_16_27
*402 FILLER_0_16_277
*403 FILLER_0_16_289
*404 FILLER_0_16_29
*405 FILLER_0_16_3
*406 FILLER_0_16_301
*407 FILLER_0_16_307
*408 FILLER_0_16_309
*409 FILLER_0_16_321
*410 FILLER_0_16_333
*411 FILLER_0_16_345
*412 FILLER_0_16_41
*413 FILLER_0_16_53
*414 FILLER_0_16_65
*415 FILLER_0_16_77
*416 FILLER_0_16_83
*417 FILLER_0_16_85
*418 FILLER_0_16_97
*419 FILLER_0_17_105
*420 FILLER_0_17_111
*421 FILLER_0_17_113
*422 FILLER_0_17_125
*423 FILLER_0_17_137
*424 FILLER_0_17_149
*425 FILLER_0_17_15
*426 FILLER_0_17_161
*427 FILLER_0_17_167
*428 FILLER_0_17_169
*429 FILLER_0_17_181
*430 FILLER_0_17_193
*431 FILLER_0_17_205
*432 FILLER_0_17_217
*433 FILLER_0_17_223
*434 FILLER_0_17_225
*435 FILLER_0_17_237
*436 FILLER_0_17_249
*437 FILLER_0_17_261
*438 FILLER_0_17_27
*439 FILLER_0_17_273
*440 FILLER_0_17_279
*441 FILLER_0_17_281
*442 FILLER_0_17_293
*443 FILLER_0_17_3
*444 FILLER_0_17_305
*445 FILLER_0_17_317
*446 FILLER_0_17_329
*447 FILLER_0_17_335
*448 FILLER_0_17_337
*449 FILLER_0_17_349
*450 FILLER_0_17_39
*451 FILLER_0_17_51
*452 FILLER_0_17_55
*453 FILLER_0_17_57
*454 FILLER_0_17_69
*455 FILLER_0_17_81
*456 FILLER_0_17_93
*457 FILLER_0_18_109
*458 FILLER_0_18_121
*459 FILLER_0_18_133
*460 FILLER_0_18_139
*461 FILLER_0_18_141
*462 FILLER_0_18_15
*463 FILLER_0_18_153
*464 FILLER_0_18_165
*465 FILLER_0_18_177
*466 FILLER_0_18_189
*467 FILLER_0_18_195
*468 FILLER_0_18_197
*469 FILLER_0_18_209
*470 FILLER_0_18_221
*471 FILLER_0_18_233
*472 FILLER_0_18_245
*473 FILLER_0_18_251
*474 FILLER_0_18_253
*475 FILLER_0_18_265
*476 FILLER_0_18_27
*477 FILLER_0_18_277
*478 FILLER_0_18_289
*479 FILLER_0_18_29
*480 FILLER_0_18_3
*481 FILLER_0_18_301
*482 FILLER_0_18_307
*483 FILLER_0_18_309
*484 FILLER_0_18_321
*485 FILLER_0_18_333
*486 FILLER_0_18_345
*487 FILLER_0_18_41
*488 FILLER_0_18_53
*489 FILLER_0_18_65
*490 FILLER_0_18_77
*491 FILLER_0_18_83
*492 FILLER_0_18_85
*493 FILLER_0_18_97
*494 FILLER_0_19_105
*495 FILLER_0_19_111
*496 FILLER_0_19_113
*497 FILLER_0_19_125
*498 FILLER_0_19_137
*499 FILLER_0_19_149
*500 FILLER_0_19_15
*501 FILLER_0_19_161
*502 FILLER_0_19_167
*503 FILLER_0_19_169
*504 FILLER_0_19_181
*505 FILLER_0_19_193
*506 FILLER_0_19_205
*507 FILLER_0_19_217
*508 FILLER_0_19_223
*509 FILLER_0_19_225
*510 FILLER_0_19_237
*511 FILLER_0_19_249
*512 FILLER_0_19_261
*513 FILLER_0_19_27
*514 FILLER_0_19_273
*515 FILLER_0_19_279
*516 FILLER_0_19_281
*517 FILLER_0_19_293
*518 FILLER_0_19_3
*519 FILLER_0_19_305
*520 FILLER_0_19_317
*521 FILLER_0_19_329
*522 FILLER_0_19_335
*523 FILLER_0_19_337
*524 FILLER_0_19_349
*525 FILLER_0_19_39
*526 FILLER_0_19_51
*527 FILLER_0_19_55
*528 FILLER_0_19_57
*529 FILLER_0_19_69
*530 FILLER_0_19_81
*531 FILLER_0_19_93
*532 FILLER_0_1_105
*533 FILLER_0_1_111
*534 FILLER_0_1_113
*535 FILLER_0_1_125
*536 FILLER_0_1_137
*537 FILLER_0_1_149
*538 FILLER_0_1_15
*539 FILLER_0_1_161
*540 FILLER_0_1_167
*541 FILLER_0_1_169
*542 FILLER_0_1_181
*543 FILLER_0_1_193
*544 FILLER_0_1_205
*545 FILLER_0_1_217
*546 FILLER_0_1_223
*547 FILLER_0_1_225
*548 FILLER_0_1_237
*549 FILLER_0_1_249
*550 FILLER_0_1_261
*551 FILLER_0_1_27
*552 FILLER_0_1_273
*553 FILLER_0_1_279
*554 FILLER_0_1_281
*555 FILLER_0_1_293
*556 FILLER_0_1_3
*557 FILLER_0_1_305
*558 FILLER_0_1_317
*559 FILLER_0_1_329
*560 FILLER_0_1_335
*561 FILLER_0_1_337
*562 FILLER_0_1_349
*563 FILLER_0_1_39
*564 FILLER_0_1_51
*565 FILLER_0_1_55
*566 FILLER_0_1_57
*567 FILLER_0_1_69
*568 FILLER_0_1_81
*569 FILLER_0_1_93
*570 FILLER_0_20_109
*571 FILLER_0_20_121
*572 FILLER_0_20_133
*573 FILLER_0_20_139
*574 FILLER_0_20_141
*575 FILLER_0_20_15
*576 FILLER_0_20_153
*577 FILLER_0_20_165
*578 FILLER_0_20_177
*579 FILLER_0_20_189
*580 FILLER_0_20_195
*581 FILLER_0_20_197
*582 FILLER_0_20_209
*583 FILLER_0_20_221
*584 FILLER_0_20_233
*585 FILLER_0_20_245
*586 FILLER_0_20_251
*587 FILLER_0_20_253
*588 FILLER_0_20_265
*589 FILLER_0_20_27
*590 FILLER_0_20_277
*591 FILLER_0_20_289
*592 FILLER_0_20_29
*593 FILLER_0_20_3
*594 FILLER_0_20_301
*595 FILLER_0_20_307
*596 FILLER_0_20_309
*597 FILLER_0_20_321
*598 FILLER_0_20_333
*599 FILLER_0_20_345
*600 FILLER_0_20_41
*601 FILLER_0_20_53
*602 FILLER_0_20_65
*603 FILLER_0_20_77
*604 FILLER_0_20_83
*605 FILLER_0_20_85
*606 FILLER_0_20_97
*607 FILLER_0_21_105
*608 FILLER_0_21_111
*609 FILLER_0_21_113
*610 FILLER_0_21_125
*611 FILLER_0_21_137
*612 FILLER_0_21_149
*613 FILLER_0_21_15
*614 FILLER_0_21_161
*615 FILLER_0_21_167
*616 FILLER_0_21_169
*617 FILLER_0_21_181
*618 FILLER_0_21_193
*619 FILLER_0_21_205
*620 FILLER_0_21_217
*621 FILLER_0_21_223
*622 FILLER_0_21_225
*623 FILLER_0_21_237
*624 FILLER_0_21_249
*625 FILLER_0_21_261
*626 FILLER_0_21_27
*627 FILLER_0_21_273
*628 FILLER_0_21_279
*629 FILLER_0_21_281
*630 FILLER_0_21_293
*631 FILLER_0_21_3
*632 FILLER_0_21_305
*633 FILLER_0_21_317
*634 FILLER_0_21_329
*635 FILLER_0_21_335
*636 FILLER_0_21_337
*637 FILLER_0_21_349
*638 FILLER_0_21_39
*639 FILLER_0_21_51
*640 FILLER_0_21_55
*641 FILLER_0_21_57
*642 FILLER_0_21_69
*643 FILLER_0_21_81
*644 FILLER_0_21_93
*645 FILLER_0_22_109
*646 FILLER_0_22_121
*647 FILLER_0_22_133
*648 FILLER_0_22_139
*649 FILLER_0_22_141
*650 FILLER_0_22_15
*651 FILLER_0_22_153
*652 FILLER_0_22_165
*653 FILLER_0_22_177
*654 FILLER_0_22_189
*655 FILLER_0_22_195
*656 FILLER_0_22_197
*657 FILLER_0_22_209
*658 FILLER_0_22_221
*659 FILLER_0_22_233
*660 FILLER_0_22_245
*661 FILLER_0_22_251
*662 FILLER_0_22_253
*663 FILLER_0_22_265
*664 FILLER_0_22_27
*665 FILLER_0_22_277
*666 FILLER_0_22_289
*667 FILLER_0_22_29
*668 FILLER_0_22_3
*669 FILLER_0_22_301
*670 FILLER_0_22_307
*671 FILLER_0_22_309
*672 FILLER_0_22_321
*673 FILLER_0_22_333
*674 FILLER_0_22_345
*675 FILLER_0_22_41
*676 FILLER_0_22_53
*677 FILLER_0_22_65
*678 FILLER_0_22_77
*679 FILLER_0_22_83
*680 FILLER_0_22_85
*681 FILLER_0_22_97
*682 FILLER_0_23_105
*683 FILLER_0_23_111
*684 FILLER_0_23_113
*685 FILLER_0_23_125
*686 FILLER_0_23_137
*687 FILLER_0_23_149
*688 FILLER_0_23_15
*689 FILLER_0_23_161
*690 FILLER_0_23_167
*691 FILLER_0_23_169
*692 FILLER_0_23_181
*693 FILLER_0_23_193
*694 FILLER_0_23_205
*695 FILLER_0_23_217
*696 FILLER_0_23_223
*697 FILLER_0_23_225
*698 FILLER_0_23_237
*699 FILLER_0_23_249
*700 FILLER_0_23_261
*701 FILLER_0_23_27
*702 FILLER_0_23_273
*703 FILLER_0_23_279
*704 FILLER_0_23_281
*705 FILLER_0_23_293
*706 FILLER_0_23_3
*707 FILLER_0_23_305
*708 FILLER_0_23_317
*709 FILLER_0_23_329
*710 FILLER_0_23_335
*711 FILLER_0_23_337
*712 FILLER_0_23_349
*713 FILLER_0_23_39
*714 FILLER_0_23_51
*715 FILLER_0_23_55
*716 FILLER_0_23_57
*717 FILLER_0_23_69
*718 FILLER_0_23_81
*719 FILLER_0_23_93
*720 FILLER_0_24_109
*721 FILLER_0_24_121
*722 FILLER_0_24_133
*723 FILLER_0_24_139
*724 FILLER_0_24_141
*725 FILLER_0_24_15
*726 FILLER_0_24_153
*727 FILLER_0_24_165
*728 FILLER_0_24_177
*729 FILLER_0_24_189
*730 FILLER_0_24_195
*731 FILLER_0_24_197
*732 FILLER_0_24_209
*733 FILLER_0_24_221
*734 FILLER_0_24_233
*735 FILLER_0_24_245
*736 FILLER_0_24_251
*737 FILLER_0_24_253
*738 FILLER_0_24_265
*739 FILLER_0_24_27
*740 FILLER_0_24_277
*741 FILLER_0_24_289
*742 FILLER_0_24_29
*743 FILLER_0_24_3
*744 FILLER_0_24_301
*745 FILLER_0_24_307
*746 FILLER_0_24_309
*747 FILLER_0_24_321
*748 FILLER_0_24_333
*749 FILLER_0_24_345
*750 FILLER_0_24_41
*751 FILLER_0_24_53
*752 FILLER_0_24_65
*753 FILLER_0_24_77
*754 FILLER_0_24_83
*755 FILLER_0_24_85
*756 FILLER_0_24_97
*757 FILLER_0_25_105
*758 FILLER_0_25_111
*759 FILLER_0_25_113
*760 FILLER_0_25_125
*761 FILLER_0_25_137
*762 FILLER_0_25_149
*763 FILLER_0_25_15
*764 FILLER_0_25_161
*765 FILLER_0_25_167
*766 FILLER_0_25_169
*767 FILLER_0_25_181
*768 FILLER_0_25_193
*769 FILLER_0_25_205
*770 FILLER_0_25_217
*771 FILLER_0_25_223
*772 FILLER_0_25_225
*773 FILLER_0_25_237
*774 FILLER_0_25_249
*775 FILLER_0_25_261
*776 FILLER_0_25_27
*777 FILLER_0_25_273
*778 FILLER_0_25_279
*779 FILLER_0_25_281
*780 FILLER_0_25_293
*781 FILLER_0_25_3
*782 FILLER_0_25_305
*783 FILLER_0_25_317
*784 FILLER_0_25_329
*785 FILLER_0_25_335
*786 FILLER_0_25_337
*787 FILLER_0_25_349
*788 FILLER_0_25_39
*789 FILLER_0_25_51
*790 FILLER_0_25_55
*791 FILLER_0_25_57
*792 FILLER_0_25_69
*793 FILLER_0_25_81
*794 FILLER_0_25_93
*795 FILLER_0_26_109
*796 FILLER_0_26_121
*797 FILLER_0_26_133
*798 FILLER_0_26_139
*799 FILLER_0_26_141
*800 FILLER_0_26_15
*801 FILLER_0_26_153
*802 FILLER_0_26_165
*803 FILLER_0_26_177
*804 FILLER_0_26_189
*805 FILLER_0_26_195
*806 FILLER_0_26_197
*807 FILLER_0_26_209
*808 FILLER_0_26_221
*809 FILLER_0_26_233
*810 FILLER_0_26_245
*811 FILLER_0_26_251
*812 FILLER_0_26_253
*813 FILLER_0_26_265
*814 FILLER_0_26_27
*815 FILLER_0_26_277
*816 FILLER_0_26_289
*817 FILLER_0_26_29
*818 FILLER_0_26_3
*819 FILLER_0_26_301
*820 FILLER_0_26_307
*821 FILLER_0_26_309
*822 FILLER_0_26_321
*823 FILLER_0_26_333
*824 FILLER_0_26_345
*825 FILLER_0_26_41
*826 FILLER_0_26_53
*827 FILLER_0_26_65
*828 FILLER_0_26_77
*829 FILLER_0_26_83
*830 FILLER_0_26_85
*831 FILLER_0_26_97
*832 FILLER_0_27_105
*833 FILLER_0_27_111
*834 FILLER_0_27_113
*835 FILLER_0_27_125
*836 FILLER_0_27_137
*837 FILLER_0_27_149
*838 FILLER_0_27_15
*839 FILLER_0_27_161
*840 FILLER_0_27_167
*841 FILLER_0_27_169
*842 FILLER_0_27_181
*843 FILLER_0_27_193
*844 FILLER_0_27_205
*845 FILLER_0_27_217
*846 FILLER_0_27_223
*847 FILLER_0_27_225
*848 FILLER_0_27_237
*849 FILLER_0_27_249
*850 FILLER_0_27_261
*851 FILLER_0_27_27
*852 FILLER_0_27_273
*853 FILLER_0_27_279
*854 FILLER_0_27_281
*855 FILLER_0_27_293
*856 FILLER_0_27_3
*857 FILLER_0_27_305
*858 FILLER_0_27_317
*859 FILLER_0_27_329
*860 FILLER_0_27_335
*861 FILLER_0_27_337
*862 FILLER_0_27_349
*863 FILLER_0_27_39
*864 FILLER_0_27_51
*865 FILLER_0_27_55
*866 FILLER_0_27_57
*867 FILLER_0_27_69
*868 FILLER_0_27_81
*869 FILLER_0_27_93
*870 FILLER_0_28_109
*871 FILLER_0_28_121
*872 FILLER_0_28_133
*873 FILLER_0_28_139
*874 FILLER_0_28_141
*875 FILLER_0_28_15
*876 FILLER_0_28_153
*877 FILLER_0_28_165
*878 FILLER_0_28_177
*879 FILLER_0_28_189
*880 FILLER_0_28_195
*881 FILLER_0_28_217
*882 FILLER_0_28_240
*883 FILLER_0_28_253
*884 FILLER_0_28_265
*885 FILLER_0_28_27
*886 FILLER_0_28_29
*887 FILLER_0_28_297
*888 FILLER_0_28_3
*889 FILLER_0_28_305
*890 FILLER_0_28_309
*891 FILLER_0_28_321
*892 FILLER_0_28_333
*893 FILLER_0_28_345
*894 FILLER_0_28_41
*895 FILLER_0_28_53
*896 FILLER_0_28_65
*897 FILLER_0_28_77
*898 FILLER_0_28_83
*899 FILLER_0_28_85
*900 FILLER_0_28_97
*901 FILLER_0_29_105
*902 FILLER_0_29_111
*903 FILLER_0_29_113
*904 FILLER_0_29_125
*905 FILLER_0_29_137
*906 FILLER_0_29_149
*907 FILLER_0_29_15
*908 FILLER_0_29_161
*909 FILLER_0_29_167
*910 FILLER_0_29_169
*911 FILLER_0_29_181
*912 FILLER_0_29_193
*913 FILLER_0_29_205
*914 FILLER_0_29_217
*915 FILLER_0_29_223
*916 FILLER_0_29_225
*917 FILLER_0_29_237
*918 FILLER_0_29_249
*919 FILLER_0_29_261
*920 FILLER_0_29_27
*921 FILLER_0_29_273
*922 FILLER_0_29_279
*923 FILLER_0_29_281
*924 FILLER_0_29_293
*925 FILLER_0_29_3
*926 FILLER_0_29_305
*927 FILLER_0_29_317
*928 FILLER_0_29_329
*929 FILLER_0_29_335
*930 FILLER_0_29_337
*931 FILLER_0_29_349
*932 FILLER_0_29_39
*933 FILLER_0_29_51
*934 FILLER_0_29_55
*935 FILLER_0_29_57
*936 FILLER_0_29_69
*937 FILLER_0_29_81
*938 FILLER_0_29_93
*939 FILLER_0_2_109
*940 FILLER_0_2_121
*941 FILLER_0_2_133
*942 FILLER_0_2_139
*943 FILLER_0_2_141
*944 FILLER_0_2_15
*945 FILLER_0_2_153
*946 FILLER_0_2_165
*947 FILLER_0_2_177
*948 FILLER_0_2_189
*949 FILLER_0_2_195
*950 FILLER_0_2_197
*951 FILLER_0_2_209
*952 FILLER_0_2_221
*953 FILLER_0_2_233
*954 FILLER_0_2_245
*955 FILLER_0_2_251
*956 FILLER_0_2_253
*957 FILLER_0_2_265
*958 FILLER_0_2_27
*959 FILLER_0_2_277
*960 FILLER_0_2_289
*961 FILLER_0_2_29
*962 FILLER_0_2_3
*963 FILLER_0_2_301
*964 FILLER_0_2_307
*965 FILLER_0_2_309
*966 FILLER_0_2_321
*967 FILLER_0_2_333
*968 FILLER_0_2_345
*969 FILLER_0_2_41
*970 FILLER_0_2_53
*971 FILLER_0_2_65
*972 FILLER_0_2_77
*973 FILLER_0_2_83
*974 FILLER_0_2_85
*975 FILLER_0_2_97
*976 FILLER_0_30_109
*977 FILLER_0_30_121
*978 FILLER_0_30_133
*979 FILLER_0_30_139
*980 FILLER_0_30_141
*981 FILLER_0_30_15
*982 FILLER_0_30_153
*983 FILLER_0_30_165
*984 FILLER_0_30_177
*985 FILLER_0_30_189
*986 FILLER_0_30_195
*987 FILLER_0_30_197
*988 FILLER_0_30_209
*989 FILLER_0_30_221
*990 FILLER_0_30_233
*991 FILLER_0_30_245
*992 FILLER_0_30_251
*993 FILLER_0_30_253
*994 FILLER_0_30_265
*995 FILLER_0_30_27
*996 FILLER_0_30_277
*997 FILLER_0_30_289
*998 FILLER_0_30_29
*999 FILLER_0_30_3
*1000 FILLER_0_30_301
*1001 FILLER_0_30_307
*1002 FILLER_0_30_309
*1003 FILLER_0_30_321
*1004 FILLER_0_30_333
*1005 FILLER_0_30_345
*1006 FILLER_0_30_41
*1007 FILLER_0_30_53
*1008 FILLER_0_30_65
*1009 FILLER_0_30_77
*1010 FILLER_0_30_83
*1011 FILLER_0_30_85
*1012 FILLER_0_30_97
*1013 FILLER_0_31_105
*1014 FILLER_0_31_111
*1015 FILLER_0_31_113
*1016 FILLER_0_31_125
*1017 FILLER_0_31_137
*1018 FILLER_0_31_149
*1019 FILLER_0_31_15
*1020 FILLER_0_31_161
*1021 FILLER_0_31_167
*1022 FILLER_0_31_169
*1023 FILLER_0_31_181
*1024 FILLER_0_31_193
*1025 FILLER_0_31_205
*1026 FILLER_0_31_217
*1027 FILLER_0_31_223
*1028 FILLER_0_31_225
*1029 FILLER_0_31_237
*1030 FILLER_0_31_249
*1031 FILLER_0_31_261
*1032 FILLER_0_31_27
*1033 FILLER_0_31_273
*1034 FILLER_0_31_279
*1035 FILLER_0_31_281
*1036 FILLER_0_31_293
*1037 FILLER_0_31_3
*1038 FILLER_0_31_305
*1039 FILLER_0_31_317
*1040 FILLER_0_31_329
*1041 FILLER_0_31_335
*1042 FILLER_0_31_337
*1043 FILLER_0_31_349
*1044 FILLER_0_31_39
*1045 FILLER_0_31_51
*1046 FILLER_0_31_55
*1047 FILLER_0_31_57
*1048 FILLER_0_31_69
*1049 FILLER_0_31_81
*1050 FILLER_0_31_93
*1051 FILLER_0_32_109
*1052 FILLER_0_32_121
*1053 FILLER_0_32_133
*1054 FILLER_0_32_139
*1055 FILLER_0_32_15
*1056 FILLER_0_32_161
*1057 FILLER_0_32_184
*1058 FILLER_0_32_217
*1059 FILLER_0_32_240
*1060 FILLER_0_32_27
*1061 FILLER_0_32_273
*1062 FILLER_0_32_285
*1063 FILLER_0_32_29
*1064 FILLER_0_32_297
*1065 FILLER_0_32_3
*1066 FILLER_0_32_305
*1067 FILLER_0_32_309
*1068 FILLER_0_32_321
*1069 FILLER_0_32_333
*1070 FILLER_0_32_345
*1071 FILLER_0_32_41
*1072 FILLER_0_32_53
*1073 FILLER_0_32_65
*1074 FILLER_0_32_77
*1075 FILLER_0_32_83
*1076 FILLER_0_32_85
*1077 FILLER_0_32_97
*1078 FILLER_0_33_105
*1079 FILLER_0_33_111
*1080 FILLER_0_33_113
*1081 FILLER_0_33_125
*1082 FILLER_0_33_137
*1083 FILLER_0_33_149
*1084 FILLER_0_33_15
*1085 FILLER_0_33_161
*1086 FILLER_0_33_167
*1087 FILLER_0_33_169
*1088 FILLER_0_33_181
*1089 FILLER_0_33_185
*1090 FILLER_0_33_202
*1091 FILLER_0_33_214
*1092 FILLER_0_33_222
*1093 FILLER_0_33_225
*1094 FILLER_0_33_229
*1095 FILLER_0_33_262
*1096 FILLER_0_33_27
*1097 FILLER_0_33_275
*1098 FILLER_0_33_279
*1099 FILLER_0_33_281
*1100 FILLER_0_33_293
*1101 FILLER_0_33_3
*1102 FILLER_0_33_305
*1103 FILLER_0_33_317
*1104 FILLER_0_33_329
*1105 FILLER_0_33_335
*1106 FILLER_0_33_337
*1107 FILLER_0_33_349
*1108 FILLER_0_33_39
*1109 FILLER_0_33_51
*1110 FILLER_0_33_55
*1111 FILLER_0_33_57
*1112 FILLER_0_33_69
*1113 FILLER_0_33_81
*1114 FILLER_0_33_93
*1115 FILLER_0_34_109
*1116 FILLER_0_34_121
*1117 FILLER_0_34_133
*1118 FILLER_0_34_139
*1119 FILLER_0_34_141
*1120 FILLER_0_34_15
*1121 FILLER_0_34_153
*1122 FILLER_0_34_165
*1123 FILLER_0_34_173
*1124 FILLER_0_34_190
*1125 FILLER_0_34_202
*1126 FILLER_0_34_208
*1127 FILLER_0_34_241
*1128 FILLER_0_34_250
*1129 FILLER_0_34_253
*1130 FILLER_0_34_261
*1131 FILLER_0_34_27
*1132 FILLER_0_34_29
*1133 FILLER_0_34_296
*1134 FILLER_0_34_3
*1135 FILLER_0_34_309
*1136 FILLER_0_34_321
*1137 FILLER_0_34_333
*1138 FILLER_0_34_345
*1139 FILLER_0_34_41
*1140 FILLER_0_34_53
*1141 FILLER_0_34_65
*1142 FILLER_0_34_77
*1143 FILLER_0_34_83
*1144 FILLER_0_34_85
*1145 FILLER_0_34_97
*1146 FILLER_0_35_105
*1147 FILLER_0_35_111
*1148 FILLER_0_35_113
*1149 FILLER_0_35_125
*1150 FILLER_0_35_137
*1151 FILLER_0_35_149
*1152 FILLER_0_35_15
*1153 FILLER_0_35_169
*1154 FILLER_0_35_179
*1155 FILLER_0_35_207
*1156 FILLER_0_35_237
*1157 FILLER_0_35_27
*1158 FILLER_0_35_279
*1159 FILLER_0_35_3
*1160 FILLER_0_35_302
*1161 FILLER_0_35_314
*1162 FILLER_0_35_326
*1163 FILLER_0_35_334
*1164 FILLER_0_35_337
*1165 FILLER_0_35_349
*1166 FILLER_0_35_39
*1167 FILLER_0_35_51
*1168 FILLER_0_35_55
*1169 FILLER_0_35_57
*1170 FILLER_0_35_69
*1171 FILLER_0_35_81
*1172 FILLER_0_35_93
*1173 FILLER_0_36_109
*1174 FILLER_0_36_121
*1175 FILLER_0_36_133
*1176 FILLER_0_36_141
*1177 FILLER_0_36_15
*1178 FILLER_0_36_175
*1179 FILLER_0_36_187
*1180 FILLER_0_36_195
*1181 FILLER_0_36_237
*1182 FILLER_0_36_243
*1183 FILLER_0_36_27
*1184 FILLER_0_36_272
*1185 FILLER_0_36_29
*1186 FILLER_0_36_3
*1187 FILLER_0_36_305
*1188 FILLER_0_36_309
*1189 FILLER_0_36_321
*1190 FILLER_0_36_333
*1191 FILLER_0_36_345
*1192 FILLER_0_36_41
*1193 FILLER_0_36_53
*1194 FILLER_0_36_65
*1195 FILLER_0_36_77
*1196 FILLER_0_36_83
*1197 FILLER_0_36_85
*1198 FILLER_0_36_97
*1199 FILLER_0_37_105
*1200 FILLER_0_37_111
*1201 FILLER_0_37_113
*1202 FILLER_0_37_125
*1203 FILLER_0_37_137
*1204 FILLER_0_37_145
*1205 FILLER_0_37_15
*1206 FILLER_0_37_150
*1207 FILLER_0_37_154
*1208 FILLER_0_37_158
*1209 FILLER_0_37_164
*1210 FILLER_0_37_169
*1211 FILLER_0_37_177
*1212 FILLER_0_37_190
*1213 FILLER_0_37_253
*1214 FILLER_0_37_27
*1215 FILLER_0_37_3
*1216 FILLER_0_37_308
*1217 FILLER_0_37_320
*1218 FILLER_0_37_332
*1219 FILLER_0_37_337
*1220 FILLER_0_37_349
*1221 FILLER_0_37_39
*1222 FILLER_0_37_51
*1223 FILLER_0_37_55
*1224 FILLER_0_37_57
*1225 FILLER_0_37_69
*1226 FILLER_0_37_81
*1227 FILLER_0_37_93
*1228 FILLER_0_38_102
*1229 FILLER_0_38_106
*1230 FILLER_0_38_110
*1231 FILLER_0_38_113
*1232 FILLER_0_38_118
*1233 FILLER_0_38_122
*1234 FILLER_0_38_126
*1235 FILLER_0_38_130
*1236 FILLER_0_38_134
*1237 FILLER_0_38_14
*1238 FILLER_0_38_145
*1239 FILLER_0_38_150
*1240 FILLER_0_38_157
*1241 FILLER_0_38_161
*1242 FILLER_0_38_166
*1243 FILLER_0_38_169
*1244 FILLER_0_38_176
*1245 FILLER_0_38_18
*1246 FILLER_0_38_192
*1247 FILLER_0_38_22
*1248 FILLER_0_38_225
*1249 FILLER_0_38_249
*1250 FILLER_0_38_253
*1251 FILLER_0_38_3
*1252 FILLER_0_38_306
*1253 FILLER_0_38_319
*1254 FILLER_0_38_32
*1255 FILLER_0_38_326
*1256 FILLER_0_38_334
*1257 FILLER_0_38_337
*1258 FILLER_0_38_349
*1259 FILLER_0_38_38
*1260 FILLER_0_38_42
*1261 FILLER_0_38_46
*1262 FILLER_0_38_50
*1263 FILLER_0_38_54
*1264 FILLER_0_38_57
*1265 FILLER_0_38_62
*1266 FILLER_0_38_66
*1267 FILLER_0_38_70
*1268 FILLER_0_38_74
*1269 FILLER_0_38_78
*1270 FILLER_0_38_88
*1271 FILLER_0_38_94
*1272 FILLER_0_38_98
*1273 FILLER_0_3_105
*1274 FILLER_0_3_111
*1275 FILLER_0_3_113
*1276 FILLER_0_3_125
*1277 FILLER_0_3_137
*1278 FILLER_0_3_149
*1279 FILLER_0_3_15
*1280 FILLER_0_3_161
*1281 FILLER_0_3_167
*1282 FILLER_0_3_169
*1283 FILLER_0_3_181
*1284 FILLER_0_3_193
*1285 FILLER_0_3_205
*1286 FILLER_0_3_217
*1287 FILLER_0_3_223
*1288 FILLER_0_3_225
*1289 FILLER_0_3_237
*1290 FILLER_0_3_249
*1291 FILLER_0_3_261
*1292 FILLER_0_3_27
*1293 FILLER_0_3_273
*1294 FILLER_0_3_279
*1295 FILLER_0_3_281
*1296 FILLER_0_3_293
*1297 FILLER_0_3_3
*1298 FILLER_0_3_305
*1299 FILLER_0_3_317
*1300 FILLER_0_3_329
*1301 FILLER_0_3_335
*1302 FILLER_0_3_337
*1303 FILLER_0_3_349
*1304 FILLER_0_3_39
*1305 FILLER_0_3_51
*1306 FILLER_0_3_55
*1307 FILLER_0_3_57
*1308 FILLER_0_3_69
*1309 FILLER_0_3_81
*1310 FILLER_0_3_93
*1311 FILLER_0_4_109
*1312 FILLER_0_4_121
*1313 FILLER_0_4_133
*1314 FILLER_0_4_139
*1315 FILLER_0_4_141
*1316 FILLER_0_4_15
*1317 FILLER_0_4_153
*1318 FILLER_0_4_165
*1319 FILLER_0_4_177
*1320 FILLER_0_4_189
*1321 FILLER_0_4_195
*1322 FILLER_0_4_197
*1323 FILLER_0_4_209
*1324 FILLER_0_4_221
*1325 FILLER_0_4_233
*1326 FILLER_0_4_245
*1327 FILLER_0_4_251
*1328 FILLER_0_4_253
*1329 FILLER_0_4_265
*1330 FILLER_0_4_27
*1331 FILLER_0_4_277
*1332 FILLER_0_4_289
*1333 FILLER_0_4_29
*1334 FILLER_0_4_3
*1335 FILLER_0_4_301
*1336 FILLER_0_4_307
*1337 FILLER_0_4_309
*1338 FILLER_0_4_321
*1339 FILLER_0_4_333
*1340 FILLER_0_4_345
*1341 FILLER_0_4_41
*1342 FILLER_0_4_53
*1343 FILLER_0_4_65
*1344 FILLER_0_4_77
*1345 FILLER_0_4_83
*1346 FILLER_0_4_85
*1347 FILLER_0_4_97
*1348 FILLER_0_5_105
*1349 FILLER_0_5_111
*1350 FILLER_0_5_113
*1351 FILLER_0_5_125
*1352 FILLER_0_5_137
*1353 FILLER_0_5_149
*1354 FILLER_0_5_15
*1355 FILLER_0_5_161
*1356 FILLER_0_5_167
*1357 FILLER_0_5_169
*1358 FILLER_0_5_181
*1359 FILLER_0_5_193
*1360 FILLER_0_5_205
*1361 FILLER_0_5_217
*1362 FILLER_0_5_223
*1363 FILLER_0_5_225
*1364 FILLER_0_5_237
*1365 FILLER_0_5_249
*1366 FILLER_0_5_261
*1367 FILLER_0_5_27
*1368 FILLER_0_5_273
*1369 FILLER_0_5_279
*1370 FILLER_0_5_281
*1371 FILLER_0_5_293
*1372 FILLER_0_5_3
*1373 FILLER_0_5_305
*1374 FILLER_0_5_317
*1375 FILLER_0_5_329
*1376 FILLER_0_5_335
*1377 FILLER_0_5_337
*1378 FILLER_0_5_349
*1379 FILLER_0_5_39
*1380 FILLER_0_5_51
*1381 FILLER_0_5_55
*1382 FILLER_0_5_57
*1383 FILLER_0_5_69
*1384 FILLER_0_5_81
*1385 FILLER_0_5_93
*1386 FILLER_0_6_109
*1387 FILLER_0_6_121
*1388 FILLER_0_6_133
*1389 FILLER_0_6_139
*1390 FILLER_0_6_141
*1391 FILLER_0_6_15
*1392 FILLER_0_6_153
*1393 FILLER_0_6_165
*1394 FILLER_0_6_177
*1395 FILLER_0_6_189
*1396 FILLER_0_6_195
*1397 FILLER_0_6_197
*1398 FILLER_0_6_209
*1399 FILLER_0_6_221
*1400 FILLER_0_6_233
*1401 FILLER_0_6_245
*1402 FILLER_0_6_251
*1403 FILLER_0_6_253
*1404 FILLER_0_6_265
*1405 FILLER_0_6_27
*1406 FILLER_0_6_277
*1407 FILLER_0_6_289
*1408 FILLER_0_6_29
*1409 FILLER_0_6_3
*1410 FILLER_0_6_301
*1411 FILLER_0_6_307
*1412 FILLER_0_6_309
*1413 FILLER_0_6_321
*1414 FILLER_0_6_333
*1415 FILLER_0_6_345
*1416 FILLER_0_6_41
*1417 FILLER_0_6_53
*1418 FILLER_0_6_65
*1419 FILLER_0_6_77
*1420 FILLER_0_6_83
*1421 FILLER_0_6_85
*1422 FILLER_0_6_97
*1423 FILLER_0_7_105
*1424 FILLER_0_7_111
*1425 FILLER_0_7_113
*1426 FILLER_0_7_125
*1427 FILLER_0_7_137
*1428 FILLER_0_7_149
*1429 FILLER_0_7_15
*1430 FILLER_0_7_161
*1431 FILLER_0_7_167
*1432 FILLER_0_7_169
*1433 FILLER_0_7_181
*1434 FILLER_0_7_193
*1435 FILLER_0_7_205
*1436 FILLER_0_7_217
*1437 FILLER_0_7_223
*1438 FILLER_0_7_225
*1439 FILLER_0_7_237
*1440 FILLER_0_7_249
*1441 FILLER_0_7_261
*1442 FILLER_0_7_27
*1443 FILLER_0_7_273
*1444 FILLER_0_7_279
*1445 FILLER_0_7_281
*1446 FILLER_0_7_293
*1447 FILLER_0_7_3
*1448 FILLER_0_7_305
*1449 FILLER_0_7_317
*1450 FILLER_0_7_329
*1451 FILLER_0_7_335
*1452 FILLER_0_7_337
*1453 FILLER_0_7_349
*1454 FILLER_0_7_39
*1455 FILLER_0_7_51
*1456 FILLER_0_7_55
*1457 FILLER_0_7_57
*1458 FILLER_0_7_69
*1459 FILLER_0_7_81
*1460 FILLER_0_7_93
*1461 FILLER_0_8_109
*1462 FILLER_0_8_121
*1463 FILLER_0_8_133
*1464 FILLER_0_8_139
*1465 FILLER_0_8_141
*1466 FILLER_0_8_15
*1467 FILLER_0_8_153