*SPEF "ieee 1481-1999"
*DESIGN "tt_um_santiago"
*DATE "11:11:11 Fri 11 11, 1111"
*VENDOR "OpenRCX"
*PROGRAM "Parallel Extraction"
*VERSION "1.0"
*DESIGN_FLOW "NAME_SCOPE LOCAL" "PIN_CAP NONE"
*DIVIDER /
*DELIMITER :
*BUS_DELIMITER []
*T_UNIT 1 NS
*C_UNIT 1 PF
*R_UNIT 1 OHM
*L_UNIT 1 HENRY

*NAME_MAP
*3 clk
*4 ena
*5 rst_n
*6 ui_in[0]
*7 ui_in[1]
*8 ui_in[2]
*9 ui_in[3]
*10 ui_in[4]
*11 ui_in[5]
*12 ui_in[6]
*13 ui_in[7]
*14 uio_in[0]
*15 uio_in[1]
*16 uio_in[2]
*17 uio_in[3]
*18 uio_in[4]
*19 uio_in[5]
*20 uio_in[6]
*21 uio_in[7]
*22 net22
*23 net23
*24 net24
*25 net25
*26 net26
*27 net27
*28 net28
*29 net29
*30 uio_out[0]
*31 uio_out[1]
*32 uio_out[2]
*33 uio_out[3]
*34 net10
*35 net11
*36 net12
*37 net13
*38 net14
*39 net15
*40 net16
*41 net17
*42 net18
*43 net19
*44 net20
*45 net21
*46 _00_
*47 _01_
*48 _02_
*49 _03_
*50 _04_
*51 _05_
*52 _06_
*53 _07_
*54 _08_
*55 _09_
*56 _10_
*57 _11_
*58 _12_
*59 _13_
*60 _14_
*61 _15_
*62 _16_
*63 clknet_0_clk
*64 clknet_1_0__leaf_clk
*65 clknet_1_1__leaf_clk
*66 mod_cdma\.cdma_o
*67 mod_cdma\.data1\[0\]
*68 mod_cdma\.data1\[1\]
*69 mod_cdma\.data1\[2\]
*70 mod_cdma\.data1\[3\]
*71 mod_cdma\.data1\[4\]
*72 mod_cdma\.data2\[0\]
*73 mod_cdma\.data2\[1\]
*74 mod_cdma\.data2\[2\]
*75 mod_cdma\.data2\[3\]
*76 mod_cdma\.data2\[4\]
*77 mod_cdma\.gold_o
*78 mod_cdma\.led_o
*79 mod_cdma\.mux1\[0\]
*80 mod_cdma\.mux1\[1\]
*81 mod_cdma\.mux1\[2\]
*82 mod_cdma\.mux1\[3\]
*83 mod_cdma\.mux1\[4\]
*84 mod_cdma\.mux2\[0\]
*85 mod_cdma\.mux2\[1\]
*86 mod_cdma\.mux2\[2\]
*87 mod_cdma\.mux2\[3\]
*88 mod_cdma\.mux2\[4\]
*89 mod_cdma\.receptor_o
*90 net1
*91 net2
*92 net3
*93 net30
*94 net31
*95 net32
*96 net33
*97 net34
*98 net35
*99 net36
*100 net4
*101 net5
*102 net6
*103 net7
*104 net8
*105 net9
*106 FILLER_0_0_109
*107 FILLER_0_0_113
*108 FILLER_0_0_125
*109 FILLER_0_0_137
*110 FILLER_0_0_141
*111 FILLER_0_0_15
*112 FILLER_0_0_153
*113 FILLER_0_0_165
*114 FILLER_0_0_169
*115 FILLER_0_0_181
*116 FILLER_0_0_193
*117 FILLER_0_0_197
*118 FILLER_0_0_209
*119 FILLER_0_0_221
*120 FILLER_0_0_225
*121 FILLER_0_0_237
*122 FILLER_0_0_249
*123 FILLER_0_0_253
*124 FILLER_0_0_265
*125 FILLER_0_0_27
*126 FILLER_0_0_277
*127 FILLER_0_0_281
*128 FILLER_0_0_29
*129 FILLER_0_0_293
*130 FILLER_0_0_3
*131 FILLER_0_0_305
*132 FILLER_0_0_309
*133 FILLER_0_0_321
*134 FILLER_0_0_333
*135 FILLER_0_0_337
*136 FILLER_0_0_349
*137 FILLER_0_0_41
*138 FILLER_0_0_53
*139 FILLER_0_0_57
*140 FILLER_0_0_69
*141 FILLER_0_0_81
*142 FILLER_0_0_85
*143 FILLER_0_0_97
*144 FILLER_0_10_109
*145 FILLER_0_10_121
*146 FILLER_0_10_133
*147 FILLER_0_10_139
*148 FILLER_0_10_141
*149 FILLER_0_10_15
*150 FILLER_0_10_153
*151 FILLER_0_10_165
*152 FILLER_0_10_177
*153 FILLER_0_10_189
*154 FILLER_0_10_195
*155 FILLER_0_10_197
*156 FILLER_0_10_209
*157 FILLER_0_10_221
*158 FILLER_0_10_233
*159 FILLER_0_10_245
*160 FILLER_0_10_251
*161 FILLER_0_10_253
*162 FILLER_0_10_265
*163 FILLER_0_10_27
*164 FILLER_0_10_277
*165 FILLER_0_10_289
*166 FILLER_0_10_29
*167 FILLER_0_10_3
*168 FILLER_0_10_301
*169 FILLER_0_10_307
*170 FILLER_0_10_309
*171 FILLER_0_10_321
*172 FILLER_0_10_333
*173 FILLER_0_10_345
*174 FILLER_0_10_41
*175 FILLER_0_10_53
*176 FILLER_0_10_65
*177 FILLER_0_10_77
*178 FILLER_0_10_83
*179 FILLER_0_10_85
*180 FILLER_0_10_97
*181 FILLER_0_11_105
*182 FILLER_0_11_111
*183 FILLER_0_11_113
*184 FILLER_0_11_125
*185 FILLER_0_11_137
*186 FILLER_0_11_149
*187 FILLER_0_11_15
*188 FILLER_0_11_161
*189 FILLER_0_11_167
*190 FILLER_0_11_169
*191 FILLER_0_11_181
*192 FILLER_0_11_193
*193 FILLER_0_11_205
*194 FILLER_0_11_217
*195 FILLER_0_11_223
*196 FILLER_0_11_225
*197 FILLER_0_11_237
*198 FILLER_0_11_249
*199 FILLER_0_11_261
*200 FILLER_0_11_27
*201 FILLER_0_11_273
*202 FILLER_0_11_279
*203 FILLER_0_11_281
*204 FILLER_0_11_293
*205 FILLER_0_11_3
*206 FILLER_0_11_305
*207 FILLER_0_11_317
*208 FILLER_0_11_329
*209 FILLER_0_11_335
*210 FILLER_0_11_337
*211 FILLER_0_11_349
*212 FILLER_0_11_39
*213 FILLER_0_11_51
*214 FILLER_0_11_55
*215 FILLER_0_11_57
*216 FILLER_0_11_69
*217 FILLER_0_11_81
*218 FILLER_0_11_93
*219 FILLER_0_12_109
*220 FILLER_0_12_121
*221 FILLER_0_12_133
*222 FILLER_0_12_139
*223 FILLER_0_12_141
*224 FILLER_0_12_15
*225 FILLER_0_12_153
*226 FILLER_0_12_165
*227 FILLER_0_12_177
*228 FILLER_0_12_189
*229 FILLER_0_12_195
*230 FILLER_0_12_197
*231 FILLER_0_12_209
*232 FILLER_0_12_221
*233 FILLER_0_12_233
*234 FILLER_0_12_245
*235 FILLER_0_12_251
*236 FILLER_0_12_253
*237 FILLER_0_12_265
*238 FILLER_0_12_27
*239 FILLER_0_12_277
*240 FILLER_0_12_289
*241 FILLER_0_12_29
*242 FILLER_0_12_3
*243 FILLER_0_12_301
*244 FILLER_0_12_307
*245 FILLER_0_12_309
*246 FILLER_0_12_321
*247 FILLER_0_12_333
*248 FILLER_0_12_345
*249 FILLER_0_12_41
*250 FILLER_0_12_53
*251 FILLER_0_12_65
*252 FILLER_0_12_77
*253 FILLER_0_12_83
*254 FILLER_0_12_85
*255 FILLER_0_12_97
*256 FILLER_0_13_105
*257 FILLER_0_13_111
*258 FILLER_0_13_113
*259 FILLER_0_13_125
*260 FILLER_0_13_137
*261 FILLER_0_13_149
*262 FILLER_0_13_15
*263 FILLER_0_13_161
*264 FILLER_0_13_167
*265 FILLER_0_13_169
*266 FILLER_0_13_181
*267 FILLER_0_13_193
*268 FILLER_0_13_205
*269 FILLER_0_13_217
*270 FILLER_0_13_223
*271 FILLER_0_13_225
*272 FILLER_0_13_237
*273 FILLER_0_13_249
*274 FILLER_0_13_261
*275 FILLER_0_13_27
*276 FILLER_0_13_273
*277 FILLER_0_13_279
*278 FILLER_0_13_281
*279 FILLER_0_13_293
*280 FILLER_0_13_3
*281 FILLER_0_13_305
*282 FILLER_0_13_317
*283 FILLER_0_13_329
*284 FILLER_0_13_335
*285 FILLER_0_13_337
*286 FILLER_0_13_349
*287 FILLER_0_13_39
*288 FILLER_0_13_51
*289 FILLER_0_13_55
*290 FILLER_0_13_57
*291 FILLER_0_13_69
*292 FILLER_0_13_81
*293 FILLER_0_13_93
*294 FILLER_0_14_109
*295 FILLER_0_14_121
*296 FILLER_0_14_133
*297 FILLER_0_14_139
*298 FILLER_0_14_141
*299 FILLER_0_14_15
*300 FILLER_0_14_153
*301 FILLER_0_14_165
*302 FILLER_0_14_177
*303 FILLER_0_14_189
*304 FILLER_0_14_195
*305 FILLER_0_14_197
*306 FILLER_0_14_209
*307 FILLER_0_14_221
*308 FILLER_0_14_233
*309 FILLER_0_14_245
*310 FILLER_0_14_251
*311 FILLER_0_14_253
*312 FILLER_0_14_265
*313 FILLER_0_14_27
*314 FILLER_0_14_277
*315 FILLER_0_14_289
*316 FILLER_0_14_29
*317 FILLER_0_14_3
*318 FILLER_0_14_301
*319 FILLER_0_14_307
*320 FILLER_0_14_309
*321 FILLER_0_14_321
*322 FILLER_0_14_333
*323 FILLER_0_14_345
*324 FILLER_0_14_41
*325 FILLER_0_14_53
*326 FILLER_0_14_65
*327 FILLER_0_14_77
*328 FILLER_0_14_83
*329 FILLER_0_14_85
*330 FILLER_0_14_97
*331 FILLER_0_15_105
*332 FILLER_0_15_111
*333 FILLER_0_15_113
*334 FILLER_0_15_125
*335 FILLER_0_15_137
*336 FILLER_0_15_149
*337 FILLER_0_15_15
*338 FILLER_0_15_161
*339 FILLER_0_15_167
*340 FILLER_0_15_169
*341 FILLER_0_15_181
*342 FILLER_0_15_193
*343 FILLER_0_15_205
*344 FILLER_0_15_217
*345 FILLER_0_15_223
*346 FILLER_0_15_225
*347 FILLER_0_15_237
*348 FILLER_0_15_249
*349 FILLER_0_15_261
*350 FILLER_0_15_27
*351 FILLER_0_15_273
*352 FILLER_0_15_279
*353 FILLER_0_15_281
*354 FILLER_0_15_293
*355 FILLER_0_15_3
*356 FILLER_0_15_305
*357 FILLER_0_15_317
*358 FILLER_0_15_329
*359 FILLER_0_15_335
*360 FILLER_0_15_337
*361 FILLER_0_15_349
*362 FILLER_0_15_39
*363 FILLER_0_15_51
*364 FILLER_0_15_55
*365 FILLER_0_15_57
*366 FILLER_0_15_69
*367 FILLER_0_15_81
*368 FILLER_0_15_93
*369 FILLER_0_16_109
*370 FILLER_0_16_121
*371 FILLER_0_16_133
*372 FILLER_0_16_139
*373 FILLER_0_16_141
*374 FILLER_0_16_15
*375 FILLER_0_16_153
*376 FILLER_0_16_165
*377 FILLER_0_16_177
*378 FILLER_0_16_189
*379 FILLER_0_16_195
*380 FILLER_0_16_197
*381 FILLER_0_16_209
*382 FILLER_0_16_221
*383 FILLER_0_16_233
*384 FILLER_0_16_245
*385 FILLER_0_16_251
*386 FILLER_0_16_253
*387 FILLER_0_16_265
*388 FILLER_0_16_27
*389 FILLER_0_16_277
*390 FILLER_0_16_289
*391 FILLER_0_16_29
*392 FILLER_0_16_3
*393 FILLER_0_16_301
*394 FILLER_0_16_307
*395 FILLER_0_16_309
*396 FILLER_0_16_321
*397 FILLER_0_16_333
*398 FILLER_0_16_345
*399 FILLER_0_16_41
*400 FILLER_0_16_53
*401 FILLER_0_16_65
*402 FILLER_0_16_77
*403 FILLER_0_16_83
*404 FILLER_0_16_85
*405 FILLER_0_16_97
*406 FILLER_0_17_105
*407 FILLER_0_17_111
*408 FILLER_0_17_113
*409 FILLER_0_17_125
*410 FILLER_0_17_137
*411 FILLER_0_17_149
*412 FILLER_0_17_15
*413 FILLER_0_17_161
*414 FILLER_0_17_167
*415 FILLER_0_17_169
*416 FILLER_0_17_181
*417 FILLER_0_17_193
*418 FILLER_0_17_205
*419 FILLER_0_17_217
*420 FILLER_0_17_223
*421 FILLER_0_17_225
*422 FILLER_0_17_237
*423 FILLER_0_17_249
*424 FILLER_0_17_261
*425 FILLER_0_17_27
*426 FILLER_0_17_273
*427 FILLER_0_17_279
*428 FILLER_0_17_281
*429 FILLER_0_17_293
*430 FILLER_0_17_3
*431 FILLER_0_17_305
*432 FILLER_0_17_317
*433 FILLER_0_17_329
*434 FILLER_0_17_335
*435 FILLER_0_17_337
*436 FILLER_0_17_349
*437 FILLER_0_17_39
*438 FILLER_0_17_51
*439 FILLER_0_17_55
*440 FILLER_0_17_57
*441 FILLER_0_17_69
*442 FILLER_0_17_81
*443 FILLER_0_17_93
*444 FILLER_0_18_109
*445 FILLER_0_18_121
*446 FILLER_0_18_133
*447 FILLER_0_18_139
*448 FILLER_0_18_141
*449 FILLER_0_18_15
*450 FILLER_0_18_153
*451 FILLER_0_18_165
*452 FILLER_0_18_177
*453 FILLER_0_18_189
*454 FILLER_0_18_195
*455 FILLER_0_18_197
*456 FILLER_0_18_209
*457 FILLER_0_18_221
*458 FILLER_0_18_233
*459 FILLER_0_18_245
*460 FILLER_0_18_251
*461 FILLER_0_18_253
*462 FILLER_0_18_265
*463 FILLER_0_18_27
*464 FILLER_0_18_277
*465 FILLER_0_18_289
*466 FILLER_0_18_29
*467 FILLER_0_18_3
*468 FILLER_0_18_301
*469 FILLER_0_18_307
*470 FILLER_0_18_309
*471 FILLER_0_18_321
*472 FILLER_0_18_333
*473 FILLER_0_18_345
*474 FILLER_0_18_41
*475 FILLER_0_18_53
*476 FILLER_0_18_65
*477 FILLER_0_18_77
*478 FILLER_0_18_83
*479 FILLER_0_18_85
*480 FILLER_0_18_97
*481 FILLER_0_19_105
*482 FILLER_0_19_111
*483 FILLER_0_19_113
*484 FILLER_0_19_125
*485 FILLER_0_19_137
*486 FILLER_0_19_149
*487 FILLER_0_19_15
*488 FILLER_0_19_161
*489 FILLER_0_19_167
*490 FILLER_0_19_169
*491 FILLER_0_19_181
*492 FILLER_0_19_193
*493 FILLER_0_19_205
*494 FILLER_0_19_217
*495 FILLER_0_19_223
*496 FILLER_0_19_225
*497 FILLER_0_19_237
*498 FILLER_0_19_249
*499 FILLER_0_19_261
*500 FILLER_0_19_27
*501 FILLER_0_19_273
*502 FILLER_0_19_279
*503 FILLER_0_19_281
*504 FILLER_0_19_293
*505 FILLER_0_19_3
*506 FILLER_0_19_305
*507 FILLER_0_19_317
*508 FILLER_0_19_329
*509 FILLER_0_19_335
*510 FILLER_0_19_337
*511 FILLER_0_19_349
*512 FILLER_0_19_39
*513 FILLER_0_19_51
*514 FILLER_0_19_55
*515 FILLER_0_19_57
*516 FILLER_0_19_69
*517 FILLER_0_19_81
*518 FILLER_0_19_93
*519 FILLER_0_1_105
*520 FILLER_0_1_111
*521 FILLER_0_1_113
*522 FILLER_0_1_125
*523 FILLER_0_1_137
*524 FILLER_0_1_149
*525 FILLER_0_1_15
*526 FILLER_0_1_161
*527 FILLER_0_1_167
*528 FILLER_0_1_169
*529 FILLER_0_1_181
*530 FILLER_0_1_193
*531 FILLER_0_1_205
*532 FILLER_0_1_217
*533 FILLER_0_1_223
*534 FILLER_0_1_225
*535 FILLER_0_1_237
*536 FILLER_0_1_249
*537 FILLER_0_1_261
*538 FILLER_0_1_27
*539 FILLER_0_1_273
*540 FILLER_0_1_279
*541 FILLER_0_1_281
*542 FILLER_0_1_293
*543 FILLER_0_1_3
*544 FILLER_0_1_305
*545 FILLER_0_1_317
*546 FILLER_0_1_329
*547 FILLER_0_1_335
*548 FILLER_0_1_337
*549 FILLER_0_1_349
*550 FILLER_0_1_39
*551 FILLER_0_1_51
*552 FILLER_0_1_55
*553 FILLER_0_1_57
*554 FILLER_0_1_69
*555 FILLER_0_1_81
*556 FILLER_0_1_93
*557 FILLER_0_20_109
*558 FILLER_0_20_121
*559 FILLER_0_20_133
*560 FILLER_0_20_139
*561 FILLER_0_20_141
*562 FILLER_0_20_15
*563 FILLER_0_20_153
*564 FILLER_0_20_165
*565 FILLER_0_20_177
*566 FILLER_0_20_189
*567 FILLER_0_20_195
*568 FILLER_0_20_197
*569 FILLER_0_20_209
*570 FILLER_0_20_221
*571 FILLER_0_20_233
*572 FILLER_0_20_245
*573 FILLER_0_20_251
*574 FILLER_0_20_253
*575 FILLER_0_20_265
*576 FILLER_0_20_27
*577 FILLER_0_20_277
*578 FILLER_0_20_289
*579 FILLER_0_20_29
*580 FILLER_0_20_3
*581 FILLER_0_20_301
*582 FILLER_0_20_307
*583 FILLER_0_20_309
*584 FILLER_0_20_321
*585 FILLER_0_20_333
*586 FILLER_0_20_345
*587 FILLER_0_20_41
*588 FILLER_0_20_53
*589 FILLER_0_20_65
*590 FILLER_0_20_77
*591 FILLER_0_20_83
*592 FILLER_0_20_85
*593 FILLER_0_20_97
*594 FILLER_0_21_105
*595 FILLER_0_21_111
*596 FILLER_0_21_113
*597 FILLER_0_21_125
*598 FILLER_0_21_137
*599 FILLER_0_21_149
*600 FILLER_0_21_15
*601 FILLER_0_21_161
*602 FILLER_0_21_167
*603 FILLER_0_21_169
*604 FILLER_0_21_181
*605 FILLER_0_21_193
*606 FILLER_0_21_205
*607 FILLER_0_21_217
*608 FILLER_0_21_223
*609 FILLER_0_21_225
*610 FILLER_0_21_237
*611 FILLER_0_21_249
*612 FILLER_0_21_261
*613 FILLER_0_21_27
*614 FILLER_0_21_273
*615 FILLER_0_21_279
*616 FILLER_0_21_281
*617 FILLER_0_21_293
*618 FILLER_0_21_3
*619 FILLER_0_21_305
*620 FILLER_0_21_317
*621 FILLER_0_21_329
*622 FILLER_0_21_335
*623 FILLER_0_21_337
*624 FILLER_0_21_349
*625 FILLER_0_21_39
*626 FILLER_0_21_51
*627 FILLER_0_21_55
*628 FILLER_0_21_57
*629 FILLER_0_21_69
*630 FILLER_0_21_81
*631 FILLER_0_21_93
*632 FILLER_0_22_109
*633 FILLER_0_22_121
*634 FILLER_0_22_133
*635 FILLER_0_22_139
*636 FILLER_0_22_141
*637 FILLER_0_22_15
*638 FILLER_0_22_153
*639 FILLER_0_22_165
*640 FILLER_0_22_177
*641 FILLER_0_22_189
*642 FILLER_0_22_195
*643 FILLER_0_22_197
*644 FILLER_0_22_209
*645 FILLER_0_22_221
*646 FILLER_0_22_233
*647 FILLER_0_22_245
*648 FILLER_0_22_251
*649 FILLER_0_22_253
*650 FILLER_0_22_265
*651 FILLER_0_22_27
*652 FILLER_0_22_277
*653 FILLER_0_22_289
*654 FILLER_0_22_29
*655 FILLER_0_22_3
*656 FILLER_0_22_301
*657 FILLER_0_22_307
*658 FILLER_0_22_309
*659 FILLER_0_22_321
*660 FILLER_0_22_333
*661 FILLER_0_22_345
*662 FILLER_0_22_41
*663 FILLER_0_22_53
*664 FILLER_0_22_65
*665 FILLER_0_22_77
*666 FILLER_0_22_83
*667 FILLER_0_22_85
*668 FILLER_0_22_97
*669 FILLER_0_23_105
*670 FILLER_0_23_111
*671 FILLER_0_23_113
*672 FILLER_0_23_125
*673 FILLER_0_23_137
*674 FILLER_0_23_149
*675 FILLER_0_23_15
*676 FILLER_0_23_161
*677 FILLER_0_23_167
*678 FILLER_0_23_169
*679 FILLER_0_23_181
*680 FILLER_0_23_193
*681 FILLER_0_23_205
*682 FILLER_0_23_217
*683 FILLER_0_23_223
*684 FILLER_0_23_225
*685 FILLER_0_23_237
*686 FILLER_0_23_249
*687 FILLER_0_23_261
*688 FILLER_0_23_27
*689 FILLER_0_23_273
*690 FILLER_0_23_279
*691 FILLER_0_23_281
*692 FILLER_0_23_293
*693 FILLER_0_23_3
*694 FILLER_0_23_305
*695 FILLER_0_23_317
*696 FILLER_0_23_329
*697 FILLER_0_23_335
*698 FILLER_0_23_337
*699 FILLER_0_23_349
*700 FILLER_0_23_39
*701 FILLER_0_23_51
*702 FILLER_0_23_55
*703 FILLER_0_23_57
*704 FILLER_0_23_69
*705 FILLER_0_23_81
*706 FILLER_0_23_93
*707 FILLER_0_24_109
*708 FILLER_0_24_121
*709 FILLER_0_24_133
*710 FILLER_0_24_139
*711 FILLER_0_24_141
*712 FILLER_0_24_15
*713 FILLER_0_24_153
*714 FILLER_0_24_165
*715 FILLER_0_24_177
*716 FILLER_0_24_189
*717 FILLER_0_24_195
*718 FILLER_0_24_197
*719 FILLER_0_24_209
*720 FILLER_0_24_221
*721 FILLER_0_24_233
*722 FILLER_0_24_245
*723 FILLER_0_24_251
*724 FILLER_0_24_253
*725 FILLER_0_24_265
*726 FILLER_0_24_27
*727 FILLER_0_24_277
*728 FILLER_0_24_289
*729 FILLER_0_24_29
*730 FILLER_0_24_3
*731 FILLER_0_24_301
*732 FILLER_0_24_307
*733 FILLER_0_24_309
*734 FILLER_0_24_321
*735 FILLER_0_24_333
*736 FILLER_0_24_345
*737 FILLER_0_24_41
*738 FILLER_0_24_53
*739 FILLER_0_24_65
*740 FILLER_0_24_77
*741 FILLER_0_24_83
*742 FILLER_0_24_85
*743 FILLER_0_24_97
*744 FILLER_0_25_105
*745 FILLER_0_25_111
*746 FILLER_0_25_113
*747 FILLER_0_25_125
*748 FILLER_0_25_137
*749 FILLER_0_25_149
*750 FILLER_0_25_15
*751 FILLER_0_25_161
*752 FILLER_0_25_167
*753 FILLER_0_25_169
*754 FILLER_0_25_181
*755 FILLER_0_25_193
*756 FILLER_0_25_205
*757 FILLER_0_25_217
*758 FILLER_0_25_223
*759 FILLER_0_25_225
*760 FILLER_0_25_237
*761 FILLER_0_25_249
*762 FILLER_0_25_261
*763 FILLER_0_25_27
*764 FILLER_0_25_273
*765 FILLER_0_25_279
*766 FILLER_0_25_281
*767 FILLER_0_25_293
*768 FILLER_0_25_3
*769 FILLER_0_25_305
*770 FILLER_0_25_317
*771 FILLER_0_25_329
*772 FILLER_0_25_335
*773 FILLER_0_25_337
*774 FILLER_0_25_349
*775 FILLER_0_25_39
*776 FILLER_0_25_51
*777 FILLER_0_25_55
*778 FILLER_0_25_57
*779 FILLER_0_25_69
*780 FILLER_0_25_81
*781 FILLER_0_25_93
*782 FILLER_0_26_109
*783 FILLER_0_26_121
*784 FILLER_0_26_133
*785 FILLER_0_26_139
*786 FILLER_0_26_141
*787 FILLER_0_26_15
*788 FILLER_0_26_153
*789 FILLER_0_26_165
*790 FILLER_0_26_177
*791 FILLER_0_26_189
*792 FILLER_0_26_195
*793 FILLER_0_26_197
*794 FILLER_0_26_209
*795 FILLER_0_26_221
*796 FILLER_0_26_233
*797 FILLER_0_26_245
*798 FILLER_0_26_251
*799 FILLER_0_26_253
*800 FILLER_0_26_265
*801 FILLER_0_26_27
*802 FILLER_0_26_277
*803 FILLER_0_26_289
*804 FILLER_0_26_29
*805 FILLER_0_26_3
*806 FILLER_0_26_301
*807 FILLER_0_26_307
*808 FILLER_0_26_309
*809 FILLER_0_26_321
*810 FILLER_0_26_333
*811 FILLER_0_26_345
*812 FILLER_0_26_41
*813 FILLER_0_26_53
*814 FILLER_0_26_65
*815 FILLER_0_26_77
*816 FILLER_0_26_83
*817 FILLER_0_26_85
*818 FILLER_0_26_97
*819 FILLER_0_27_105
*820 FILLER_0_27_111
*821 FILLER_0_27_113
*822 FILLER_0_27_125
*823 FILLER_0_27_137
*824 FILLER_0_27_149
*825 FILLER_0_27_15
*826 FILLER_0_27_161
*827 FILLER_0_27_167
*828 FILLER_0_27_169
*829 FILLER_0_27_181
*830 FILLER_0_27_193
*831 FILLER_0_27_205
*832 FILLER_0_27_217
*833 FILLER_0_27_223
*834 FILLER_0_27_225
*835 FILLER_0_27_237
*836 FILLER_0_27_249
*837 FILLER_0_27_261
*838 FILLER_0_27_27
*839 FILLER_0_27_273
*840 FILLER_0_27_279
*841 FILLER_0_27_281
*842 FILLER_0_27_293
*843 FILLER_0_27_3
*844 FILLER_0_27_305
*845 FILLER_0_27_317
*846 FILLER_0_27_329
*847 FILLER_0_27_335
*848 FILLER_0_27_337
*849 FILLER_0_27_349
*850 FILLER_0_27_39
*851 FILLER_0_27_51
*852 FILLER_0_27_55
*853 FILLER_0_27_57
*854 FILLER_0_27_69
*855 FILLER_0_27_81
*856 FILLER_0_27_93
*857 FILLER_0_28_109
*858 FILLER_0_28_121
*859 FILLER_0_28_133
*860 FILLER_0_28_139
*861 FILLER_0_28_141
*862 FILLER_0_28_15
*863 FILLER_0_28_153
*864 FILLER_0_28_165
*865 FILLER_0_28_177
*866 FILLER_0_28_189
*867 FILLER_0_28_195
*868 FILLER_0_28_197
*869 FILLER_0_28_209
*870 FILLER_0_28_221
*871 FILLER_0_28_233
*872 FILLER_0_28_245
*873 FILLER_0_28_251
*874 FILLER_0_28_253
*875 FILLER_0_28_265
*876 FILLER_0_28_27
*877 FILLER_0_28_277
*878 FILLER_0_28_289
*879 FILLER_0_28_29
*880 FILLER_0_28_3
*881 FILLER_0_28_301
*882 FILLER_0_28_307
*883 FILLER_0_28_309
*884 FILLER_0_28_321
*885 FILLER_0_28_333
*886 FILLER_0_28_345
*887 FILLER_0_28_41
*888 FILLER_0_28_53
*889 FILLER_0_28_65
*890 FILLER_0_28_77
*891 FILLER_0_28_83
*892 FILLER_0_28_85
*893 FILLER_0_28_97
*894 FILLER_0_29_105
*895 FILLER_0_29_111
*896 FILLER_0_29_113
*897 FILLER_0_29_125
*898 FILLER_0_29_137
*899 FILLER_0_29_149
*900 FILLER_0_29_15
*901 FILLER_0_29_161
*902 FILLER_0_29_167
*903 FILLER_0_29_169
*904 FILLER_0_29_181
*905 FILLER_0_29_193
*906 FILLER_0_29_205
*907 FILLER_0_29_217
*908 FILLER_0_29_223
*909 FILLER_0_29_225
*910 FILLER_0_29_237
*911 FILLER_0_29_249
*912 FILLER_0_29_261
*913 FILLER_0_29_27
*914 FILLER_0_29_273
*915 FILLER_0_29_279
*916 FILLER_0_29_281
*917 FILLER_0_29_293
*918 FILLER_0_29_3
*919 FILLER_0_29_305
*920 FILLER_0_29_317
*921 FILLER_0_29_329
*922 FILLER_0_29_335
*923 FILLER_0_29_337
*924 FILLER_0_29_349
*925 FILLER_0_29_39
*926 FILLER_0_29_51
*927 FILLER_0_29_55
*928 FILLER_0_29_57
*929 FILLER_0_29_69
*930 FILLER_0_29_81
*931 FILLER_0_29_93
*932 FILLER_0_2_109
*933 FILLER_0_2_121
*934 FILLER_0_2_133
*935 FILLER_0_2_139
*936 FILLER_0_2_141
*937 FILLER_0_2_15
*938 FILLER_0_2_153
*939 FILLER_0_2_165
*940 FILLER_0_2_177
*941 FILLER_0_2_189
*942 FILLER_0_2_195
*943 FILLER_0_2_197
*944 FILLER_0_2_209
*945 FILLER_0_2_221
*946 FILLER_0_2_233
*947 FILLER_0_2_245
*948 FILLER_0_2_251
*949 FILLER_0_2_253
*950 FILLER_0_2_265
*951 FILLER_0_2_27
*952 FILLER_0_2_277
*953 FILLER_0_2_289
*954 FILLER_0_2_29
*955 FILLER_0_2_3
*956 FILLER_0_2_301
*957 FILLER_0_2_307
*958 FILLER_0_2_309
*959 FILLER_0_2_321
*960 FILLER_0_2_333
*961 FILLER_0_2_345
*962 FILLER_0_2_41
*963 FILLER_0_2_53
*964 FILLER_0_2_65
*965 FILLER_0_2_77
*966 FILLER_0_2_83
*967 FILLER_0_2_85
*968 FILLER_0_2_97
*969 FILLER_0_30_109
*970 FILLER_0_30_121
*971 FILLER_0_30_133
*972 FILLER_0_30_139
*973 FILLER_0_30_141
*974 FILLER_0_30_15
*975 FILLER_0_30_153
*976 FILLER_0_30_165
*977 FILLER_0_30_177
*978 FILLER_0_30_189
*979 FILLER_0_30_195
*980 FILLER_0_30_197
*981 FILLER_0_30_209
*982 FILLER_0_30_221
*983 FILLER_0_30_233
*984 FILLER_0_30_245
*985 FILLER_0_30_251
*986 FILLER_0_30_253
*987 FILLER_0_30_265
*988 FILLER_0_30_27
*989 FILLER_0_30_277
*990 FILLER_0_30_289
*991 FILLER_0_30_29
*992 FILLER_0_30_3
*993 FILLER_0_30_301
*994 FILLER_0_30_307
*995 FILLER_0_30_309
*996 FILLER_0_30_321
*997 FILLER_0_30_333
*998 FILLER_0_30_345
*999 FILLER_0_30_41
*1000 FILLER_0_30_53
*1001 FILLER_0_30_65
*1002 FILLER_0_30_77
*1003 FILLER_0_30_83
*1004 FILLER_0_30_85
*1005 FILLER_0_30_97
*1006 FILLER_0_31_105
*1007 FILLER_0_31_111
*1008 FILLER_0_31_113
*1009 FILLER_0_31_125
*1010 FILLER_0_31_137
*1011 FILLER_0_31_149
*1012 FILLER_0_31_15
*1013 FILLER_0_31_161
*1014 FILLER_0_31_167
*1015 FILLER_0_31_169
*1016 FILLER_0_31_181
*1017 FILLER_0_31_193
*1018 FILLER_0_31_205
*1019 FILLER_0_31_217
*1020 FILLER_0_31_223
*1021 FILLER_0_31_225
*1022 FILLER_0_31_237
*1023 FILLER_0_31_249
*1024 FILLER_0_31_261
*1025 FILLER_0_31_27
*1026 FILLER_0_31_273
*1027 FILLER_0_31_279
*1028 FILLER_0_31_281
*1029 FILLER_0_31_293
*1030 FILLER_0_31_3
*1031 FILLER_0_31_305
*1032 FILLER_0_31_317
*1033 FILLER_0_31_329
*1034 FILLER_0_31_335
*1035 FILLER_0_31_337
*1036 FILLER_0_31_349
*1037 FILLER_0_31_39
*1038 FILLER_0_31_51
*1039 FILLER_0_31_55
*1040 FILLER_0_31_57
*1041 FILLER_0_31_69
*1042 FILLER_0_31_81
*1043 FILLER_0_31_93
*1044 FILLER_0_32_109
*1045 FILLER_0_32_121
*1046 FILLER_0_32_133
*1047 FILLER_0_32_139
*1048 FILLER_0_32_141
*1049 FILLER_0_32_15
*1050 FILLER_0_32_153
*1051 FILLER_0_32_165
*1052 FILLER_0_32_177
*1053 FILLER_0_32_189
*1054 FILLER_0_32_195
*1055 FILLER_0_32_197
*1056 FILLER_0_32_209
*1057 FILLER_0_32_221
*1058 FILLER_0_32_233
*1059 FILLER_0_32_245
*1060 FILLER_0_32_251
*1061 FILLER_0_32_27
*1062 FILLER_0_32_273
*1063 FILLER_0_32_285
*1064 FILLER_0_32_29
*1065 FILLER_0_32_297
*1066 FILLER_0_32_3
*1067 FILLER_0_32_305
*1068 FILLER_0_32_329
*1069 FILLER_0_32_341
*1070 FILLER_0_32_349
*1071 FILLER_0_32_41
*1072 FILLER_0_32_53
*1073 FILLER_0_32_65
*1074 FILLER_0_32_77
*1075 FILLER_0_32_83
*1076 FILLER_0_32_85
*1077 FILLER_0_32_97
*1078 FILLER_0_33_105
*1079 FILLER_0_33_111
*1080 FILLER_0_33_113
*1081 FILLER_0_33_125
*1082 FILLER_0_33_137
*1083 FILLER_0_33_149
*1084 FILLER_0_33_15
*1085 FILLER_0_33_161
*1086 FILLER_0_33_167
*1087 FILLER_0_33_169
*1088 FILLER_0_33_181
*1089 FILLER_0_33_193
*1090 FILLER_0_33_205
*1091 FILLER_0_33_217
*1092 FILLER_0_33_223
*1093 FILLER_0_33_225
*1094 FILLER_0_33_237
*1095 FILLER_0_33_249
*1096 FILLER_0_33_261
*1097 FILLER_0_33_27
*1098 FILLER_0_33_273
*1099 FILLER_0_33_279
*1100 FILLER_0_33_290
*1101 FILLER_0_33_3
*1102 FILLER_0_33_302
*1103 FILLER_0_33_314
*1104 FILLER_0_33_326
*1105 FILLER_0_33_334
*1106 FILLER_0_33_337
*1107 FILLER_0_33_349
*1108 FILLER_0_33_39
*1109 FILLER_0_33_51
*1110 FILLER_0_33_55
*1111 FILLER_0_33_57
*1112 FILLER_0_33_69
*1113 FILLER_0_33_81
*1114 FILLER_0_33_93
*1115 FILLER_0_34_109
*1116 FILLER_0_34_121
*1117 FILLER_0_34_133
*1118 FILLER_0_34_139
*1119 FILLER_0_34_141
*1120 FILLER_0_34_15
*1121 FILLER_0_34_153
*1122 FILLER_0_34_165
*1123 FILLER_0_34_177
*1124 FILLER_0_34_189
*1125 FILLER_0_34_195
*1126 FILLER_0_34_197
*1127 FILLER_0_34_209
*1128 FILLER_0_34_221
*1129 FILLER_0_34_233
*1130 FILLER_0_34_245
*1131 FILLER_0_34_251
*1132 FILLER_0_34_27
*1133 FILLER_0_34_273
*1134 FILLER_0_34_29
*1135 FILLER_0_34_295
*1136 FILLER_0_34_3
*1137 FILLER_0_34_304
*1138 FILLER_0_34_317
*1139 FILLER_0_34_329
*1140 FILLER_0_34_41
*1141 FILLER_0_34_53
*1142 FILLER_0_34_65
*1143 FILLER_0_34_77
*1144 FILLER_0_34_83
*1145 FILLER_0_34_85
*1146 FILLER_0_34_97
*1147 FILLER_0_35_105
*1148 FILLER_0_35_111
*1149 FILLER_0_35_113
*1150 FILLER_0_35_125
*1151 FILLER_0_35_137
*1152 FILLER_0_35_149
*1153 FILLER_0_35_15
*1154 FILLER_0_35_161
*1155 FILLER_0_35_167
*1156 FILLER_0_35_169
*1157 FILLER_0_35_181
*1158 FILLER_0_35_193
*1159 FILLER_0_35_205
*1160 FILLER_0_35_217
*1161 FILLER_0_35_223
*1162 FILLER_0_35_225
*1163 FILLER_0_35_250
*1164 FILLER_0_35_265
*1165 FILLER_0_35_27
*1166 FILLER_0_35_275
*1167 FILLER_0_35_279
*1168 FILLER_0_35_3
*1169 FILLER_0_35_310
*1170 FILLER_0_35_334
*1171 FILLER_0_35_348
*1172 FILLER_0_35_39
*1173 FILLER_0_35_51
*1174 FILLER_0_35_55
*1175 FILLER_0_35_57
*1176 FILLER_0_35_69
*1177 FILLER_0_35_81
*1178 FILLER_0_35_93
*1179 FILLER_0_36_109
*1180 FILLER_0_36_121
*1181 FILLER_0_36_133
*1182 FILLER_0_36_139
*1183 FILLER_0_36_141
*1184 FILLER_0_36_15
*1185 FILLER_0_36_153
*1186 FILLER_0_36_165
*1187 FILLER_0_36_177
*1188 FILLER_0_36_189
*1189 FILLER_0_36_195
*1190 FILLER_0_36_197
*1191 FILLER_0_36_209
*1192 FILLER_0_36_221
*1193 FILLER_0_36_236
*1194 FILLER_0_36_242
*1195 FILLER_0_36_246
*1196 FILLER_0_36_253
*1197 FILLER_0_36_266
*1198 FILLER_0_36_27
*1199 FILLER_0_36_274
*1200 FILLER_0_36_29
*1201 FILLER_0_36_3
*1202 FILLER_0_36_304
*1203 FILLER_0_36_315
*1204 FILLER_0_36_321
*1205 FILLER_0_36_41
*1206 FILLER_0_36_53
*1207 FILLER_0_36_65
*1208 FILLER_0_36_77
*1209 FILLER_0_36_83
*1210 FILLER_0_36_85
*1211 FILLER_0_36_97
*1212 FILLER_0_37_105
*1213 FILLER_0_37_111
*1214 FILLER_0_37_113
*1215 FILLER_0_37_125
*1216 FILLER_0_37_129
*1217 FILLER_0_37_141
*1218 FILLER_0_37_15
*1219 FILLER_0_37_153
*1220 FILLER_0_37_165
*1221 FILLER_0_37_169
*1222 FILLER_0_37_181
*1223 FILLER_0_37_193
*1224 FILLER_0_37_205
*1225 FILLER_0_37_217
*1226 FILLER_0_37_223
*1227 FILLER_0_37_238
*1228 FILLER_0_37_27
*1229 FILLER_0_37_274
*1230 FILLER_0_37_278
*1231 FILLER_0_37_290
*1232 FILLER_0_37_296
*1233 FILLER_0_37_3
*1234 FILLER_0_37_343
*1235 FILLER_0_37_39
*1236 FILLER_0_37_51
*1237 FILLER_0_37_55
*1238 FILLER_0_37_57
*1239 FILLER_0_37_69
*1240 FILLER_0_37_81
*1241 FILLER_0_37_93
*1242 FILLER_0_38_102
*1243 FILLER_0_38_110
*1244 FILLER_0_38_119
*1245 FILLER_0_38_138
*1246 FILLER_0_38_14
*1247 FILLER_0_38_144
*1248 FILLER_0_38_150
*1249 FILLER_0_38_154
*1250 FILLER_0_38_158
*1251 FILLER_0_38_162
*1252 FILLER_0_38_166
*1253 FILLER_0_38_169
*1254 FILLER_0_38_174
*1255 FILLER_0_38_178
*1256 FILLER_0_38_18
*1257 FILLER_0_38_182
*1258 FILLER_0_38_186
*1259 FILLER_0_38_190
*1260 FILLER_0_38_200
*1261 FILLER_0_38_215
*1262 FILLER_0_38_22
*1263 FILLER_0_38_223
*1264 FILLER_0_38_225
*1265 FILLER_0_38_251
*1266 FILLER_0_38_253
*1267 FILLER_0_38_257
*1268 FILLER_0_38_269
*1269 FILLER_0_38_279
*1270 FILLER_0_38_294
*1271 FILLER_0_38_3
*1272 FILLER_0_38_300
*1273 FILLER_0_38_32
*1274 FILLER_0_38_323
*1275 FILLER_0_38_334
*1276 FILLER_0_38_38
*1277 FILLER_0_38_42
*1278 FILLER_0_38_46
*1279 FILLER_0_38_50
*1280 FILLER_0_38_54
*1281 FILLER_0_38_57
*1282 FILLER_0_38_62
*1283 FILLER_0_38_66
*1284 FILLER_0_38_70
*1285 FILLER_0_38_74
*1286 FILLER_0_38_78
*1287 FILLER_0_38_88
*1288 FILLER_0_38_94
*1289 FILLER_0_38_98
*1290 FILLER_0_3_105
*1291 FILLER_0_3_111
*1292 FILLER_0_3_113
*1293 FILLER_0_3_125
*1294 FILLER_0_3_137
*1295 FILLER_0_3_149
*1296 FILLER_0_3_15
*1297 FILLER_0_3_161
*1298 FILLER_0_3_167
*1299 FILLER_0_3_169
*1300 FILLER_0_3_181
*1301 FILLER_0_3_193
*1302 FILLER_0_3_205
*1303 FILLER_0_3_217
*1304 FILLER_0_3_223
*1305 FILLER_0_3_225
*1306 FILLER_0_3_237
*1307 FILLER_0_3_249
*1308 FILLER_0_3_261
*1309 FILLER_0_3_27
*1310 FILLER_0_3_273
*1311 FILLER_0_3_279
*1312 FILLER_0_3_281
*1313 FILLER_0_3_293
*1314 FILLER_0_3_3
*1315 FILLER_0_3_305
*1316 FILLER_0_3_317
*1317 FILLER_0_3_329
*1318 FILLER_0_3_335
*1319 FILLER_0_3_337
*1320 FILLER_0_3_349
*1321 FILLER_0_3_39
*1322 FILLER_0_3_51
*1323 FILLER_0_3_55
*1324 FILLER_0_3_57
*1325 FILLER_0_3_69
*1326 FILLER_0_3_81
*1327 FILLER_0_3_93
*1328 FILLER_0_4_109
*1329 FILLER_0_4_121
*1330 FILLER_0_4_133
*1331 FILLER_0_4_139
*1332 FILLER_0_4_141
*1333 FILLER_0_4_15
*1334 FILLER_0_4_153
*1335 FILLER_0_4_165
*1336 FILLER_0_4_177
*1337 FILLER_0_4_189
*1338 FILLER_0_4_195
*1339 FILLER_0_4_197
*1340 FILLER_0_4_209
*1341 FILLER_0_4_221
*1342 FILLER_0_4_233
*1343 FILLER_0_4_245
*1344 FILLER_0_4_251
*1345 FILLER_0_4_253
*1346 FILLER_0_4_265
*1347 FILLER_0_4_27
*1348 FILLER_0_4_277
*1349 FILLER_0_4_289
*1350 FILLER_0_4_29
*1351 FILLER_0_4_3
*1352 FILLER_0_4_301
*1353 FILLER_0_4_307
*1354 FILLER_0_4_309
*1355 FILLER_0_4_321
*1356 FILLER_0_4_333
*1357 FILLER_0_4_345
*1358 FILLER_0_4_41
*1359 FILLER_0_4_53
*1360 FILLER_0_4_65
*1361 FILLER_0_4_77
*1362 FILLER_0_4_83
*1363 FILLER_0_4_85
*1364 FILLER_0_4_97
*1365 FILLER_0_5_105
*1366 FILLER_0_5_111
*1367 FILLER_0_5_113
*1368 FILLER_0_5_125
*1369 FILLER_0_5_137
*1370 FILLER_0_5_149
*1371 FILLER_0_5_15
*1372 FILLER_0_5_161
*1373 FILLER_0_5_167
*1374 FILLER_0_5_169
*1375 FILLER_0_5_181
*1376 FILLER_0_5_193
*1377 FILLER_0_5_205
*1378 FILLER_0_5_217
*1379 FILLER_0_5_223
*1380 FILLER_0_5_225
*1381 FILLER_0_5_237
*1382 FILLER_0_5_249
*1383 FILLER_0_5_261
*1384 FILLER_0_5_27
*1385 FILLER_0_5_273
*1386 FILLER_0_5_279
*1387 FILLER_0_5_281
*1388 FILLER_0_5_293
*1389 FILLER_0_5_3
*1390 FILLER_0_5_305
*1391 FILLER_0_5_317
*1392 FILLER_0_5_329
*1393 FILLER_0_5_335
*1394 FILLER_0_5_337
*1395 FILLER_0_5_349
*1396 FILLER_0_5_39
*1397 FILLER_0_5_51
*1398 FILLER_0_5_55
*1399 FILLER_0_5_57
*1400 FILLER_0_5_69
*1401 FILLER_0_5_81
*1402 FILLER_0_5_93
*1403 FILLER_0_6_109
*1404 FILLER_0_6_121
*1405 FILLER_0_6_133
*1406 FILLER_0_6_139
*1407 FILLER_0_6_141
*1408 FILLER_0_6_15
*1409 FILLER_0_6_153
*1410 FILLER_0_6_165
*1411 FILLER_0_6_177
*1412 FILLER_0_6_189
*1413 FILLER_0_6_195
*1414 FILLER_0_6_197
*1415 FILLER_0_6_209
*1416 FILLER_0_6_221
*1417 FILLER_0_6_233
*1418 FILLER_0_6_245
*1419 FILLER_0_6_251
*1420 FILLER_0_6_253
*1421 FILLER_0_6_265
*1422 FILLER_0_6_27
*1423 FILLER_0_6_277
*1424 FILLER_0_6_289
*1425 FILLER_0_6_29
*1426 FILLER_0_6_3
*1427 FILLER_0_6_301
*1428 FILLER_0_6_307
*1429 FILLER_0_6_309
*1430 FILLER_0_6_321
*1431 FILLER_0_6_333
*1432 FILLER_0_6_345
*1433 FILLER_0_6_41
*1434 FILLER_0_6_53
*1435 FILLER_0_6_65
*1436 FILLER_0_6_77
*1437 FILLER_0_6_83
*1438 FILLER_0_6_85
*1439 FILLER_0_6_97
*1440 FILLER_0_7_105
*1441 FILLER_0_7_111
*1442 FILLER_0_7_113
*1443 FILLER_0_7_125
*1444 FILLER_0_7_137
*1445 FILLER_0_7_149
*1446 FILLER_0_7_15
*1447 FILLER_0_7_161
*1448 FILLER_0_7_167
*1449 FILLER_0_7_169
*1450 FILLER_0_7_181
*1451 FILLER_0_7_193
*1452 FILLER_0_7_205
*1453 FILLER_0_7_217
*1454 FILLER_0_7_223
*1455 FILLER_0_7_225
*1456 FILLER_0_7_237
*1457 FILLER_0_7_249
*1458 FILLER_0_7_261
*1459 FILLER_0_7_27
*1460 FILLER_0_7_273
*1461 FILLER_0_7_279
*1462 FILLER_0_7_281