*SPEF "ieee 1481-1999"
*DESIGN "tt_um_FSM"
*DATE "11:11:11 Fri 11 11, 1111"
*VENDOR "OpenRCX"
*PROGRAM "Parallel Extraction"
*VERSION "1.0"
*DESIGN_FLOW "NAME_SCOPE LOCAL" "PIN_CAP NONE"
*DIVIDER /
*DELIMITER :
*BUS_DELIMITER []
*T_UNIT 1 NS
*C_UNIT 1 PF
*R_UNIT 1 OHM
*L_UNIT 1 HENRY

*NAME_MAP
*3 clk
*4 ena
*5 rst_n
*6 ui_in[0]
*7 ui_in[1]
*8 ui_in[2]
*9 ui_in[3]
*10 ui_in[4]
*11 ui_in[5]
*12 ui_in[6]
*13 ui_in[7]
*14 uio_in[0]
*15 uio_in[1]
*16 uio_in[2]
*17 uio_in[3]
*18 uio_in[4]
*19 uio_in[5]
*20 uio_in[6]
*21 uio_in[7]
*22 net13
*23 net14
*24 net15
*25 net16
*26 net17
*27 net18
*28 net19
*29 net20
*30 net21
*31 net22
*32 net23
*33 net24
*34 net25
*35 net26
*36 net27
*37 net28
*38 uo_out[0]
*39 net29
*40 net30
*41 net31
*42 uo_out[4]
*43 uo_out[5]
*44 uo_out[6]
*45 uo_out[7]
*46 _000_
*47 _001_
*48 _002_
*49 _003_
*50 _004_
*51 _005_
*52 _006_
*53 _007_
*54 _008_
*55 _009_
*56 _010_
*57 _011_
*58 _012_
*59 _013_
*60 _014_
*61 _015_
*62 _016_
*63 _017_
*64 _018_
*65 _019_
*66 _020_
*67 _021_
*68 _022_
*69 _023_
*70 _024_
*71 _025_
*72 _026_
*73 _027_
*74 _028_
*75 _029_
*76 _030_
*77 _031_
*78 _032_
*79 _033_
*80 _034_
*81 _035_
*82 _036_
*83 _037_
*84 _038_
*85 _039_
*86 _040_
*87 _041_
*88 _042_
*89 _043_
*90 _044_
*91 _045_
*92 _046_
*93 _047_
*94 _048_
*95 _049_
*96 _050_
*97 _051_
*98 _052_
*99 _053_
*100 _054_
*101 _055_
*102 _056_
*103 _057_
*104 _058_
*105 _059_
*106 _060_
*107 _061_
*108 _062_
*109 _063_
*110 _064_
*111 _065_
*112 _066_
*113 _067_
*114 _068_
*115 _069_
*116 _070_
*117 _071_
*118 _072_
*119 _073_
*120 _074_
*121 _075_
*122 _076_
*123 _077_
*124 _078_
*125 _079_
*126 _080_
*127 _081_
*128 _082_
*129 _083_
*130 _084_
*131 _085_
*132 _086_
*133 _087_
*134 _088_
*135 _089_
*136 _090_
*137 _091_
*138 _092_
*139 _093_
*140 _094_
*141 _095_
*142 _096_
*143 _097_
*144 _098_
*145 _099_
*146 _100_
*147 _101_
*148 _102_
*149 _103_
*150 _104_
*151 _105_
*152 _106_
*153 _107_
*154 _108_
*155 _109_
*156 _110_
*157 _111_
*158 _112_
*159 _113_
*160 _114_
*161 _115_
*162 _116_
*163 _117_
*164 _118_
*165 _119_
*166 _120_
*167 _121_
*168 _122_
*169 _123_
*170 _124_
*171 _125_
*172 _126_
*173 _127_
*174 _128_
*175 _129_
*176 _130_
*177 _131_
*178 _132_
*179 _133_
*180 _134_
*181 _135_
*182 _136_
*183 _137_
*184 _138_
*185 _139_
*186 _140_
*187 _141_
*188 _142_
*189 _143_
*190 _144_
*191 _145_
*192 _146_
*193 _147_
*194 _148_
*195 _149_
*196 _150_
*197 _151_
*198 _152_
*199 _153_
*200 _154_
*201 _155_
*202 _156_
*203 _157_
*204 _158_
*205 _159_
*206 _160_
*207 _161_
*208 _162_
*209 _163_
*210 _164_
*211 _165_
*212 _166_
*213 _167_
*214 _168_
*215 _169_
*216 _170_
*217 _171_
*218 _172_
*219 _173_
*220 _174_
*221 _175_
*222 _176_
*223 _177_
*224 _178_
*225 _179_
*226 _180_
*227 _181_
*228 _182_
*229 _183_
*230 _184_
*231 _185_
*232 _186_
*233 _187_
*234 _188_
*235 _189_
*236 _190_
*237 _191_
*238 _192_
*239 _193_
*240 _194_
*241 _195_
*242 _196_
*243 _197_
*244 _198_
*245 _199_
*246 _200_
*247 _201_
*248 _202_
*249 _203_
*250 _204_
*251 _205_
*252 _206_
*253 _207_
*254 _208_
*255 _209_
*256 _210_
*257 _211_
*258 _212_
*259 _213_
*260 _214_
*261 _215_
*262 _216_
*263 _217_
*264 _218_
*265 _219_
*266 _220_
*267 clknet_0_clk
*268 clknet_1_0__leaf_clk
*269 clknet_1_1__leaf_clk
*270 counter\[0\]
*271 counter\[10\]
*272 counter\[11\]
*273 counter\[12\]
*274 counter\[13\]
*275 counter\[1\]
*276 counter\[2\]
*277 counter\[3\]
*278 counter\[4\]
*279 counter\[5\]
*280 counter\[6\]
*281 counter\[7\]
*282 counter\[8\]
*283 counter\[9\]
*284 motorA_i
*285 motorB_d
*286 motorB_i
*287 net1
*288 net10
*289 net11
*290 net12
*291 net2
*292 net3
*293 net32
*294 net33
*295 net34
*296 net35
*297 net36
*298 net37
*299 net38
*300 net39
*301 net4
*302 net40
*303 net41
*304 net42
*305 net43
*306 net44
*307 net45
*308 net46
*309 net47
*310 net5
*311 net6
*312 net7
*313 net8
*314 net9
*315 pwm
*316 state\[0\]
*317 state\[1\]
*318 state\[2\]
*319 state\[3\]
*320 stepCountBit\[0\]
*321 stepCountBit\[1\]
*322 stepCountBit\[2\]
*323 stepCountBit\[3\]
*324 stepCountBit\[4\]
*325 stepCountBit\[5\]
*326 stepCountBit\[6\]
*327 stepCountBit\[7\]
*328 FILLER_0_0_109
*329 FILLER_0_0_113
*330 FILLER_0_0_125
*331 FILLER_0_0_137
*332 FILLER_0_0_141
*333 FILLER_0_0_15
*334 FILLER_0_0_153
*335 FILLER_0_0_165
*336 FILLER_0_0_169
*337 FILLER_0_0_181
*338 FILLER_0_0_193
*339 FILLER_0_0_197
*340 FILLER_0_0_209
*341 FILLER_0_0_221
*342 FILLER_0_0_225
*343 FILLER_0_0_237
*344 FILLER_0_0_249
*345 FILLER_0_0_253
*346 FILLER_0_0_265
*347 FILLER_0_0_27
*348 FILLER_0_0_277
*349 FILLER_0_0_281
*350 FILLER_0_0_29
*351 FILLER_0_0_293
*352 FILLER_0_0_3
*353 FILLER_0_0_305
*354 FILLER_0_0_309
*355 FILLER_0_0_321
*356 FILLER_0_0_333
*357 FILLER_0_0_337
*358 FILLER_0_0_349
*359 FILLER_0_0_41
*360 FILLER_0_0_53
*361 FILLER_0_0_57
*362 FILLER_0_0_69
*363 FILLER_0_0_81
*364 FILLER_0_0_85
*365 FILLER_0_0_97
*366 FILLER_0_10_109
*367 FILLER_0_10_121
*368 FILLER_0_10_133
*369 FILLER_0_10_139
*370 FILLER_0_10_141
*371 FILLER_0_10_15
*372 FILLER_0_10_153
*373 FILLER_0_10_165
*374 FILLER_0_10_177
*375 FILLER_0_10_189
*376 FILLER_0_10_195
*377 FILLER_0_10_197
*378 FILLER_0_10_209
*379 FILLER_0_10_221
*380 FILLER_0_10_233
*381 FILLER_0_10_245
*382 FILLER_0_10_251
*383 FILLER_0_10_253
*384 FILLER_0_10_265
*385 FILLER_0_10_27
*386 FILLER_0_10_277
*387 FILLER_0_10_289
*388 FILLER_0_10_29
*389 FILLER_0_10_3
*390 FILLER_0_10_301
*391 FILLER_0_10_307
*392 FILLER_0_10_309
*393 FILLER_0_10_321
*394 FILLER_0_10_333
*395 FILLER_0_10_345
*396 FILLER_0_10_41
*397 FILLER_0_10_53
*398 FILLER_0_10_65
*399 FILLER_0_10_77
*400 FILLER_0_10_83
*401 FILLER_0_10_85
*402 FILLER_0_10_97
*403 FILLER_0_11_105
*404 FILLER_0_11_111
*405 FILLER_0_11_113
*406 FILLER_0_11_125
*407 FILLER_0_11_137
*408 FILLER_0_11_149
*409 FILLER_0_11_15
*410 FILLER_0_11_161
*411 FILLER_0_11_167
*412 FILLER_0_11_169
*413 FILLER_0_11_181
*414 FILLER_0_11_193
*415 FILLER_0_11_205
*416 FILLER_0_11_217
*417 FILLER_0_11_223
*418 FILLER_0_11_225
*419 FILLER_0_11_237
*420 FILLER_0_11_249
*421 FILLER_0_11_261
*422 FILLER_0_11_27
*423 FILLER_0_11_273
*424 FILLER_0_11_279
*425 FILLER_0_11_281
*426 FILLER_0_11_293
*427 FILLER_0_11_3
*428 FILLER_0_11_305
*429 FILLER_0_11_317
*430 FILLER_0_11_329
*431 FILLER_0_11_335
*432 FILLER_0_11_337
*433 FILLER_0_11_349
*434 FILLER_0_11_39
*435 FILLER_0_11_51
*436 FILLER_0_11_55
*437 FILLER_0_11_57
*438 FILLER_0_11_69
*439 FILLER_0_11_81
*440 FILLER_0_11_93
*441 FILLER_0_12_109
*442 FILLER_0_12_121
*443 FILLER_0_12_133
*444 FILLER_0_12_139
*445 FILLER_0_12_141
*446 FILLER_0_12_15
*447 FILLER_0_12_153
*448 FILLER_0_12_165
*449 FILLER_0_12_177
*450 FILLER_0_12_189
*451 FILLER_0_12_195
*452 FILLER_0_12_197
*453 FILLER_0_12_209
*454 FILLER_0_12_221
*455 FILLER_0_12_233
*456 FILLER_0_12_245
*457 FILLER_0_12_251
*458 FILLER_0_12_253
*459 FILLER_0_12_265
*460 FILLER_0_12_27
*461 FILLER_0_12_277
*462 FILLER_0_12_289
*463 FILLER_0_12_29
*464 FILLER_0_12_3
*465 FILLER_0_12_301
*466 FILLER_0_12_307
*467 FILLER_0_12_309
*468 FILLER_0_12_321
*469 FILLER_0_12_333
*470 FILLER_0_12_345
*471 FILLER_0_12_41
*472 FILLER_0_12_53
*473 FILLER_0_12_65
*474 FILLER_0_12_77
*475 FILLER_0_12_83
*476 FILLER_0_12_85
*477 FILLER_0_12_97
*478 FILLER_0_13_105
*479 FILLER_0_13_111
*480 FILLER_0_13_113
*481 FILLER_0_13_125
*482 FILLER_0_13_137
*483 FILLER_0_13_149
*484 FILLER_0_13_15
*485 FILLER_0_13_161
*486 FILLER_0_13_167
*487 FILLER_0_13_169
*488 FILLER_0_13_181
*489 FILLER_0_13_193
*490 FILLER_0_13_205
*491 FILLER_0_13_217
*492 FILLER_0_13_223
*493 FILLER_0_13_225
*494 FILLER_0_13_237
*495 FILLER_0_13_249
*496 FILLER_0_13_261
*497 FILLER_0_13_27
*498 FILLER_0_13_273
*499 FILLER_0_13_279
*500 FILLER_0_13_281
*501 FILLER_0_13_293
*502 FILLER_0_13_3
*503 FILLER_0_13_305
*504 FILLER_0_13_317
*505 FILLER_0_13_329
*506 FILLER_0_13_335
*507 FILLER_0_13_337
*508 FILLER_0_13_349
*509 FILLER_0_13_39
*510 FILLER_0_13_51
*511 FILLER_0_13_55
*512 FILLER_0_13_57
*513 FILLER_0_13_69
*514 FILLER_0_13_81
*515 FILLER_0_13_93
*516 FILLER_0_14_109
*517 FILLER_0_14_121
*518 FILLER_0_14_133
*519 FILLER_0_14_139
*520 FILLER_0_14_141
*521 FILLER_0_14_15
*522 FILLER_0_14_153
*523 FILLER_0_14_165
*524 FILLER_0_14_177
*525 FILLER_0_14_189
*526 FILLER_0_14_195
*527 FILLER_0_14_197
*528 FILLER_0_14_209
*529 FILLER_0_14_221
*530 FILLER_0_14_233
*531 FILLER_0_14_245
*532 FILLER_0_14_251
*533 FILLER_0_14_253
*534 FILLER_0_14_265
*535 FILLER_0_14_27
*536 FILLER_0_14_277
*537 FILLER_0_14_289
*538 FILLER_0_14_29
*539 FILLER_0_14_3
*540 FILLER_0_14_301
*541 FILLER_0_14_307
*542 FILLER_0_14_309
*543 FILLER_0_14_321
*544 FILLER_0_14_333
*545 FILLER_0_14_345
*546 FILLER_0_14_41
*547 FILLER_0_14_53
*548 FILLER_0_14_65
*549 FILLER_0_14_77
*550 FILLER_0_14_83
*551 FILLER_0_14_85
*552 FILLER_0_14_97
*553 FILLER_0_15_105
*554 FILLER_0_15_111
*555 FILLER_0_15_113
*556 FILLER_0_15_125
*557 FILLER_0_15_137
*558 FILLER_0_15_149
*559 FILLER_0_15_15
*560 FILLER_0_15_161
*561 FILLER_0_15_167
*562 FILLER_0_15_169
*563 FILLER_0_15_181
*564 FILLER_0_15_193
*565 FILLER_0_15_205
*566 FILLER_0_15_217
*567 FILLER_0_15_223
*568 FILLER_0_15_225
*569 FILLER_0_15_237
*570 FILLER_0_15_249
*571 FILLER_0_15_261
*572 FILLER_0_15_27
*573 FILLER_0_15_273
*574 FILLER_0_15_279
*575 FILLER_0_15_281
*576 FILLER_0_15_293
*577 FILLER_0_15_3
*578 FILLER_0_15_305
*579 FILLER_0_15_317
*580 FILLER_0_15_329
*581 FILLER_0_15_335
*582 FILLER_0_15_337
*583 FILLER_0_15_349
*584 FILLER_0_15_39
*585 FILLER_0_15_51
*586 FILLER_0_15_55
*587 FILLER_0_15_57
*588 FILLER_0_15_69
*589 FILLER_0_15_81
*590 FILLER_0_15_93
*591 FILLER_0_16_109
*592 FILLER_0_16_121
*593 FILLER_0_16_133
*594 FILLER_0_16_139
*595 FILLER_0_16_141
*596 FILLER_0_16_15
*597 FILLER_0_16_153
*598 FILLER_0_16_165
*599 FILLER_0_16_177
*600 FILLER_0_16_189
*601 FILLER_0_16_195
*602 FILLER_0_16_197
*603 FILLER_0_16_209
*604 FILLER_0_16_221
*605 FILLER_0_16_233
*606 FILLER_0_16_245
*607 FILLER_0_16_251
*608 FILLER_0_16_253
*609 FILLER_0_16_265
*610 FILLER_0_16_27
*611 FILLER_0_16_277
*612 FILLER_0_16_289
*613 FILLER_0_16_29
*614 FILLER_0_16_3
*615 FILLER_0_16_301
*616 FILLER_0_16_307
*617 FILLER_0_16_309
*618 FILLER_0_16_321
*619 FILLER_0_16_333
*620 FILLER_0_16_345
*621 FILLER_0_16_41
*622 FILLER_0_16_53
*623 FILLER_0_16_65
*624 FILLER_0_16_77
*625 FILLER_0_16_83
*626 FILLER_0_16_85
*627 FILLER_0_16_97
*628 FILLER_0_17_105
*629 FILLER_0_17_111
*630 FILLER_0_17_113
*631 FILLER_0_17_125
*632 FILLER_0_17_137
*633 FILLER_0_17_149
*634 FILLER_0_17_15
*635 FILLER_0_17_161
*636 FILLER_0_17_167
*637 FILLER_0_17_169
*638 FILLER_0_17_181
*639 FILLER_0_17_193
*640 FILLER_0_17_205
*641 FILLER_0_17_217
*642 FILLER_0_17_223
*643 FILLER_0_17_225
*644 FILLER_0_17_237
*645 FILLER_0_17_249
*646 FILLER_0_17_261
*647 FILLER_0_17_27
*648 FILLER_0_17_273
*649 FILLER_0_17_279
*650 FILLER_0_17_281
*651 FILLER_0_17_293
*652 FILLER_0_17_3
*653 FILLER_0_17_305
*654 FILLER_0_17_317
*655 FILLER_0_17_329
*656 FILLER_0_17_335
*657 FILLER_0_17_337
*658 FILLER_0_17_349
*659 FILLER_0_17_39
*660 FILLER_0_17_51
*661 FILLER_0_17_55
*662 FILLER_0_17_57
*663 FILLER_0_17_69
*664 FILLER_0_17_81
*665 FILLER_0_17_93
*666 FILLER_0_18_109
*667 FILLER_0_18_121
*668 FILLER_0_18_133
*669 FILLER_0_18_139
*670 FILLER_0_18_141
*671 FILLER_0_18_15
*672 FILLER_0_18_153
*673 FILLER_0_18_165
*674 FILLER_0_18_177
*675 FILLER_0_18_189
*676 FILLER_0_18_195
*677 FILLER_0_18_197
*678 FILLER_0_18_209
*679 FILLER_0_18_221
*680 FILLER_0_18_233
*681 FILLER_0_18_245
*682 FILLER_0_18_251
*683 FILLER_0_18_253
*684 FILLER_0_18_265
*685 FILLER_0_18_27
*686 FILLER_0_18_277
*687 FILLER_0_18_289
*688 FILLER_0_18_29
*689 FILLER_0_18_3
*690 FILLER_0_18_301
*691 FILLER_0_18_307
*692 FILLER_0_18_309
*693 FILLER_0_18_321
*694 FILLER_0_18_333
*695 FILLER_0_18_345
*696 FILLER_0_18_41
*697 FILLER_0_18_53
*698 FILLER_0_18_65
*699 FILLER_0_18_77
*700 FILLER_0_18_83
*701 FILLER_0_18_85
*702 FILLER_0_18_97
*703 FILLER_0_19_105
*704 FILLER_0_19_111
*705 FILLER_0_19_113
*706 FILLER_0_19_125
*707 FILLER_0_19_137
*708 FILLER_0_19_149
*709 FILLER_0_19_15
*710 FILLER_0_19_161
*711 FILLER_0_19_167
*712 FILLER_0_19_169
*713 FILLER_0_19_181
*714 FILLER_0_19_193
*715 FILLER_0_19_205
*716 FILLER_0_19_217
*717 FILLER_0_19_223
*718 FILLER_0_19_225
*719 FILLER_0_19_237
*720 FILLER_0_19_249
*721 FILLER_0_19_261
*722 FILLER_0_19_27
*723 FILLER_0_19_273
*724 FILLER_0_19_279
*725 FILLER_0_19_281
*726 FILLER_0_19_293
*727 FILLER_0_19_3
*728 FILLER_0_19_305
*729 FILLER_0_19_317
*730 FILLER_0_19_329
*731 FILLER_0_19_335
*732 FILLER_0_19_337
*733 FILLER_0_19_349
*734 FILLER_0_19_39
*735 FILLER_0_19_51
*736 FILLER_0_19_55
*737 FILLER_0_19_57
*738 FILLER_0_19_69
*739 FILLER_0_19_81
*740 FILLER_0_19_93
*741 FILLER_0_1_105
*742 FILLER_0_1_111
*743 FILLER_0_1_113
*744 FILLER_0_1_125
*745 FILLER_0_1_137
*746 FILLER_0_1_149
*747 FILLER_0_1_15
*748 FILLER_0_1_161
*749 FILLER_0_1_167
*750 FILLER_0_1_169
*751 FILLER_0_1_181
*752 FILLER_0_1_193
*753 FILLER_0_1_205
*754 FILLER_0_1_217
*755 FILLER_0_1_223
*756 FILLER_0_1_225
*757 FILLER_0_1_237
*758 FILLER_0_1_249
*759 FILLER_0_1_261
*760 FILLER_0_1_27
*761 FILLER_0_1_273
*762 FILLER_0_1_279
*763 FILLER_0_1_281
*764 FILLER_0_1_293
*765 FILLER_0_1_3
*766 FILLER_0_1_305
*767 FILLER_0_1_317
*768 FILLER_0_1_329
*769 FILLER_0_1_335
*770 FILLER_0_1_337
*771 FILLER_0_1_349
*772 FILLER_0_1_39
*773 FILLER_0_1_51
*774 FILLER_0_1_55
*775 FILLER_0_1_57
*776 FILLER_0_1_69
*777 FILLER_0_1_81
*778 FILLER_0_1_93
*779 FILLER_0_20_109
*780 FILLER_0_20_121
*781 FILLER_0_20_133
*782 FILLER_0_20_139
*783 FILLER_0_20_141
*784 FILLER_0_20_15
*785 FILLER_0_20_153
*786 FILLER_0_20_165
*787 FILLER_0_20_177
*788 FILLER_0_20_189
*789 FILLER_0_20_195
*790 FILLER_0_20_197
*791 FILLER_0_20_209
*792 FILLER_0_20_221
*793 FILLER_0_20_233
*794 FILLER_0_20_245
*795 FILLER_0_20_251
*796 FILLER_0_20_253
*797 FILLER_0_20_265
*798 FILLER_0_20_27
*799 FILLER_0_20_277
*800 FILLER_0_20_289
*801 FILLER_0_20_29
*802 FILLER_0_20_3
*803 FILLER_0_20_301
*804 FILLER_0_20_307
*805 FILLER_0_20_309
*806 FILLER_0_20_321
*807 FILLER_0_20_333
*808 FILLER_0_20_345
*809 FILLER_0_20_41
*810 FILLER_0_20_53
*811 FILLER_0_20_65
*812 FILLER_0_20_77
*813 FILLER_0_20_83
*814 FILLER_0_20_85
*815 FILLER_0_20_97
*816 FILLER_0_21_105
*817 FILLER_0_21_111
*818 FILLER_0_21_113
*819 FILLER_0_21_125
*820 FILLER_0_21_137
*821 FILLER_0_21_149
*822 FILLER_0_21_15
*823 FILLER_0_21_161
*824 FILLER_0_21_167
*825 FILLER_0_21_169
*826 FILLER_0_21_181
*827 FILLER_0_21_203
*828 FILLER_0_21_211
*829 FILLER_0_21_216
*830 FILLER_0_21_225
*831 FILLER_0_21_237
*832 FILLER_0_21_249
*833 FILLER_0_21_261
*834 FILLER_0_21_27
*835 FILLER_0_21_273
*836 FILLER_0_21_279
*837 FILLER_0_21_281
*838 FILLER_0_21_293
*839 FILLER_0_21_3
*840 FILLER_0_21_305
*841 FILLER_0_21_317
*842 FILLER_0_21_329
*843 FILLER_0_21_335
*844 FILLER_0_21_337
*845 FILLER_0_21_349
*846 FILLER_0_21_39
*847 FILLER_0_21_51
*848 FILLER_0_21_55
*849 FILLER_0_21_57
*850 FILLER_0_21_69
*851 FILLER_0_21_81
*852 FILLER_0_21_93
*853 FILLER_0_22_109
*854 FILLER_0_22_121
*855 FILLER_0_22_133
*856 FILLER_0_22_139
*857 FILLER_0_22_141
*858 FILLER_0_22_149
*859 FILLER_0_22_15
*860 FILLER_0_22_163
*861 FILLER_0_22_184
*862 FILLER_0_22_197
*863 FILLER_0_22_209
*864 FILLER_0_22_226
*865 FILLER_0_22_231
*866 FILLER_0_22_243
*867 FILLER_0_22_251
*868 FILLER_0_22_253
*869 FILLER_0_22_265
*870 FILLER_0_22_27
*871 FILLER_0_22_277
*872 FILLER_0_22_289
*873 FILLER_0_22_29
*874 FILLER_0_22_3
*875 FILLER_0_22_301
*876 FILLER_0_22_307
*877 FILLER_0_22_325
*878 FILLER_0_22_337
*879 FILLER_0_22_349
*880 FILLER_0_22_41
*881 FILLER_0_22_53
*882 FILLER_0_22_65
*883 FILLER_0_22_77
*884 FILLER_0_22_83
*885 FILLER_0_22_85
*886 FILLER_0_22_97
*887 FILLER_0_23_105
*888 FILLER_0_23_111
*889 FILLER_0_23_113
*890 FILLER_0_23_125
*891 FILLER_0_23_133
*892 FILLER_0_23_15
*893 FILLER_0_23_151
*894 FILLER_0_23_167
*895 FILLER_0_23_177
*896 FILLER_0_23_185
*897 FILLER_0_23_193
*898 FILLER_0_23_209
*899 FILLER_0_23_219
*900 FILLER_0_23_223
*901 FILLER_0_23_225
*902 FILLER_0_23_246
*903 FILLER_0_23_252
*904 FILLER_0_23_269
*905 FILLER_0_23_27
*906 FILLER_0_23_276
*907 FILLER_0_23_297
*908 FILLER_0_23_3
*909 FILLER_0_23_316
*910 FILLER_0_23_326
*911 FILLER_0_23_334
*912 FILLER_0_23_337
*913 FILLER_0_23_349
*914 FILLER_0_23_39
*915 FILLER_0_23_51
*916 FILLER_0_23_55
*917 FILLER_0_23_57
*918 FILLER_0_23_69
*919 FILLER_0_23_81
*920 FILLER_0_23_93
*921 FILLER_0_24_109
*922 FILLER_0_24_121
*923 FILLER_0_24_133
*924 FILLER_0_24_139
*925 FILLER_0_24_141
*926 FILLER_0_24_149
*927 FILLER_0_24_15
*928 FILLER_0_24_161
*929 FILLER_0_24_165
*930 FILLER_0_24_177
*931 FILLER_0_24_181
*932 FILLER_0_24_188
*933 FILLER_0_24_193
*934 FILLER_0_24_201
*935 FILLER_0_24_209
*936 FILLER_0_24_213
*937 FILLER_0_24_224
*938 FILLER_0_24_228
*939 FILLER_0_24_241
*940 FILLER_0_24_249
*941 FILLER_0_24_253
*942 FILLER_0_24_262
*943 FILLER_0_24_27
*944 FILLER_0_24_274
*945 FILLER_0_24_283
*946 FILLER_0_24_29
*947 FILLER_0_24_295
*948 FILLER_0_24_3
*949 FILLER_0_24_301
*950 FILLER_0_24_307
*951 FILLER_0_24_318
*952 FILLER_0_24_336
*953 FILLER_0_24_348
*954 FILLER_0_24_41
*955 FILLER_0_24_53
*956 FILLER_0_24_65
*957 FILLER_0_24_77
*958 FILLER_0_24_83
*959 FILLER_0_24_85
*960 FILLER_0_24_97
*961 FILLER_0_25_105
*962 FILLER_0_25_111
*963 FILLER_0_25_113
*964 FILLER_0_25_125
*965 FILLER_0_25_15
*966 FILLER_0_25_153
*967 FILLER_0_25_162
*968 FILLER_0_25_167
*969 FILLER_0_25_192
*970 FILLER_0_25_205
*971 FILLER_0_25_209
*972 FILLER_0_25_215
*973 FILLER_0_25_223
*974 FILLER_0_25_225
*975 FILLER_0_25_248
*976 FILLER_0_25_27
*977 FILLER_0_25_272
*978 FILLER_0_25_285
*979 FILLER_0_25_289
*980 FILLER_0_25_297
*981 FILLER_0_25_3
*982 FILLER_0_25_301
*983 FILLER_0_25_313
*984 FILLER_0_25_321
*985 FILLER_0_25_332
*986 FILLER_0_25_345
*987 FILLER_0_25_39
*988 FILLER_0_25_51
*989 FILLER_0_25_55
*990 FILLER_0_25_57
*991 FILLER_0_25_69
*992 FILLER_0_25_81
*993 FILLER_0_25_93
*994 FILLER_0_26_109
*995 FILLER_0_26_121
*996 FILLER_0_26_133
*997 FILLER_0_26_139
*998 FILLER_0_26_141
*999 FILLER_0_26_15
*1000 FILLER_0_26_153
*1001 FILLER_0_26_165
*1002 FILLER_0_26_183
*1003 FILLER_0_26_189
*1004 FILLER_0_26_195
*1005 FILLER_0_26_197
*1006 FILLER_0_26_205
*1007 FILLER_0_26_227
*1008 FILLER_0_26_249
*1009 FILLER_0_26_253
*1010 FILLER_0_26_265
*1011 FILLER_0_26_27
*1012 FILLER_0_26_273
*1013 FILLER_0_26_29
*1014 FILLER_0_26_3
*1015 FILLER_0_26_303
*1016 FILLER_0_26_307
*1017 FILLER_0_26_309
*1018 FILLER_0_26_320
*1019 FILLER_0_26_348
*1020 FILLER_0_26_41
*1021 FILLER_0_26_53
*1022 FILLER_0_26_65
*1023 FILLER_0_26_77
*1024 FILLER_0_26_83
*1025 FILLER_0_26_85
*1026 FILLER_0_26_97
*1027 FILLER_0_27_105
*1028 FILLER_0_27_111
*1029 FILLER_0_27_113
*1030 FILLER_0_27_125
*1031 FILLER_0_27_137
*1032 FILLER_0_27_145
*1033 FILLER_0_27_15
*1034 FILLER_0_27_157
*1035 FILLER_0_27_185
*1036 FILLER_0_27_204
*1037 FILLER_0_27_208
*1038 FILLER_0_27_213
*1039 FILLER_0_27_221
*1040 FILLER_0_27_225
*1041 FILLER_0_27_246
*1042 FILLER_0_27_266
*1043 FILLER_0_27_27
*1044 FILLER_0_27_279
*1045 FILLER_0_27_286
*1046 FILLER_0_27_294
*1047 FILLER_0_27_3
*1048 FILLER_0_27_318
*1049 FILLER_0_27_335
*1050 FILLER_0_27_337
*1051 FILLER_0_27_348
*1052 FILLER_0_27_39
*1053 FILLER_0_27_51
*1054 FILLER_0_27_55
*1055 FILLER_0_27_57
*1056 FILLER_0_27_69
*1057 FILLER_0_27_81
*1058 FILLER_0_27_93
*1059 FILLER_0_28_109
*1060 FILLER_0_28_121
*1061 FILLER_0_28_133
*1062 FILLER_0_28_139
*1063 FILLER_0_28_141
*1064 FILLER_0_28_15
*1065 FILLER_0_28_184
*1066 FILLER_0_28_195
*1067 FILLER_0_28_197
*1068 FILLER_0_28_208
*1069 FILLER_0_28_227
*1070 FILLER_0_28_239
*1071 FILLER_0_28_250
*1072 FILLER_0_28_260
*1073 FILLER_0_28_268
*1074 FILLER_0_28_27
*1075 FILLER_0_28_274
*1076 FILLER_0_28_29
*1077 FILLER_0_28_3
*1078 FILLER_0_28_304
*1079 FILLER_0_28_309
*1080 FILLER_0_28_321
*1081 FILLER_0_28_325
*1082 FILLER_0_28_334
*1083 FILLER_0_28_347
*1084 FILLER_0_28_41
*1085 FILLER_0_28_53
*1086 FILLER_0_28_65
*1087 FILLER_0_28_77
*1088 FILLER_0_28_83
*1089 FILLER_0_28_85
*1090 FILLER_0_28_97
*1091 FILLER_0_29_105
*1092 FILLER_0_29_111
*1093 FILLER_0_29_113
*1094 FILLER_0_29_125
*1095 FILLER_0_29_144
*1096 FILLER_0_29_149
*1097 FILLER_0_29_15
*1098 FILLER_0_29_161
*1099 FILLER_0_29_167
*1100 FILLER_0_29_175
*1101 FILLER_0_29_179
*1102 FILLER_0_29_187
*1103 FILLER_0_29_199
*1104 FILLER_0_29_217
*1105 FILLER_0_29_223
*1106 FILLER_0_29_225
*1107 FILLER_0_29_233
*1108 FILLER_0_29_245
*1109 FILLER_0_29_269
*1110 FILLER_0_29_27
*1111 FILLER_0_29_277
*1112 FILLER_0_29_281
*1113 FILLER_0_29_289
*1114 FILLER_0_29_3
*1115 FILLER_0_29_304
*1116 FILLER_0_29_323
*1117 FILLER_0_29_335
*1118 FILLER_0_29_344
*1119 FILLER_0_29_350
*1120 FILLER_0_29_39
*1121 FILLER_0_29_51
*1122 FILLER_0_29_55
*1123 FILLER_0_29_57
*1124 FILLER_0_29_69
*1125 FILLER_0_29_81
*1126 FILLER_0_29_93
*1127 FILLER_0_2_109
*1128 FILLER_0_2_121
*1129 FILLER_0_2_133
*1130 FILLER_0_2_139
*1131 FILLER_0_2_141
*1132 FILLER_0_2_15
*1133 FILLER_0_2_153
*1134 FILLER_0_2_165
*1135 FILLER_0_2_177
*1136 FILLER_0_2_189
*1137 FILLER_0_2_195
*1138 FILLER_0_2_197
*1139 FILLER_0_2_209
*1140 FILLER_0_2_221
*1141 FILLER_0_2_233
*1142 FILLER_0_2_245
*1143 FILLER_0_2_251
*1144 FILLER_0_2_253
*1145 FILLER_0_2_265
*1146 FILLER_0_2_27
*1147 FILLER_0_2_277
*1148 FILLER_0_2_289
*1149 FILLER_0_2_29
*1150 FILLER_0_2_3
*1151 FILLER_0_2_301
*1152 FILLER_0_2_307
*1153 FILLER_0_2_309
*1154 FILLER_0_2_321
*1155 FILLER_0_2_333
*1156 FILLER_0_2_345
*1157 FILLER_0_2_41
*1158 FILLER_0_2_53
*1159 FILLER_0_2_65
*1160 FILLER_0_2_77
*1161 FILLER_0_2_83
*1162 FILLER_0_2_85
*1163 FILLER_0_2_97
*1164 FILLER_0_30_109
*1165 FILLER_0_30_121
*1166 FILLER_0_30_133
*1167 FILLER_0_30_139
*1168 FILLER_0_30_141
*1169 FILLER_0_30_15
*1170 FILLER_0_30_153
*1171 FILLER_0_30_159
*1172 FILLER_0_30_174
*1173 FILLER_0_30_180
*1174 FILLER_0_30_208
*1175 FILLER_0_30_216
*1176 FILLER_0_30_231
*1177 FILLER_0_30_259
*1178 FILLER_0_30_268
*1179 FILLER_0_30_27
*1180 FILLER_0_30_286
*1181 FILLER_0_30_29
*1182 FILLER_0_30_3
*1183 FILLER_0_30_306
*1184 FILLER_0_30_322
*1185 FILLER_0_30_342
*1186 FILLER_0_30_350
*1187 FILLER_0_30_41
*1188 FILLER_0_30_53
*1189 FILLER_0_30_65
*1190 FILLER_0_30_77
*1191 FILLER_0_30_83
*1192 FILLER_0_30_85
*1193 FILLER_0_30_97
*1194 FILLER_0_31_105
*1195 FILLER_0_31_111
*1196 FILLER_0_31_113
*1197 FILLER_0_31_125
*1198 FILLER_0_31_137
*1199 FILLER_0_31_143
*1200 FILLER_0_31_15
*1201 FILLER_0_31_156
*1202 FILLER_0_31_169
*1203 FILLER_0_31_173
*1204 FILLER_0_31_179
*1205 FILLER_0_31_191
*1206 FILLER_0_31_203
*1207 FILLER_0_31_215
*1208 FILLER_0_31_223
*1209 FILLER_0_31_225
*1210 FILLER_0_31_242
*1211 FILLER_0_31_257
*1212 FILLER_0_31_269
*1213 FILLER_0_31_27
*1214 FILLER_0_31_277
*1215 FILLER_0_31_281
*1216 FILLER_0_31_293
*1217 FILLER_0_31_3
*1218 FILLER_0_31_305
*1219 FILLER_0_31_311
*1220 FILLER_0_31_320
*1221 FILLER_0_31_332
*1222 FILLER_0_31_337
*1223 FILLER_0_31_349
*1224 FILLER_0_31_39
*1225 FILLER_0_31_51
*1226 FILLER_0_31_55
*1227 FILLER_0_31_57
*1228 FILLER_0_31_69
*1229 FILLER_0_31_81
*1230 FILLER_0_31_93
*1231 FILLER_0_32_109
*1232 FILLER_0_32_121
*1233 FILLER_0_32_133
*1234 FILLER_0_32_139
*1235 FILLER_0_32_141
*1236 FILLER_0_32_15
*1237 FILLER_0_32_154
*1238 FILLER_0_32_171
*1239 FILLER_0_32_183
*1240 FILLER_0_32_193
*1241 FILLER_0_32_197
*1242 FILLER_0_32_203
*1243 FILLER_0_32_219
*1244 FILLER_0_32_240
*1245 FILLER_0_32_244
*1246 FILLER_0_32_250
*1247 FILLER_0_32_260
*1248 FILLER_0_32_266
*1249 FILLER_0_32_27
*1250 FILLER_0_32_282
*1251 FILLER_0_32_29
*1252 FILLER_0_32_290
*1253 FILLER_0_32_297
*1254 FILLER_0_32_3
*1255 FILLER_0_32_305
*1256 FILLER_0_32_322
*1257 FILLER_0_32_344
*1258 FILLER_0_32_350
*1259 FILLER_0_32_41
*1260 FILLER_0_32_53
*1261 FILLER_0_32_65
*1262 FILLER_0_32_77
*1263 FILLER_0_32_83
*1264 FILLER_0_32_85
*1265 FILLER_0_32_97
*1266 FILLER_0_33_105
*1267 FILLER_0_33_111
*1268 FILLER_0_33_113
*1269 FILLER_0_33_125
*1270 FILLER_0_33_137
*1271 FILLER_0_33_148
*1272 FILLER_0_33_15
*1273 FILLER_0_33_160
*1274 FILLER_0_33_169
*1275 FILLER_0_33_181
*1276 FILLER_0_33_195
*1277 FILLER_0_33_207
*1278 FILLER_0_33_214
*1279 FILLER_0_33_222
*1280 FILLER_0_33_225
*1281 FILLER_0_33_237
*1282 FILLER_0_33_253
*1283 FILLER_0_33_269
*1284 FILLER_0_33_27
*1285 FILLER_0_33_273
*1286 FILLER_0_33_277
*1287 FILLER_0_33_281
*1288 FILLER_0_33_287
*1289 FILLER_0_33_3
*1290 FILLER_0_33_304
*1291 FILLER_0_33_316
*1292 FILLER_0_33_329
*1293 FILLER_0_33_347
*1294 FILLER_0_33_39
*1295 FILLER_0_33_51
*1296 FILLER_0_33_55
*1297 FILLER_0_33_57
*1298 FILLER_0_33_69
*1299 FILLER_0_33_81
*1300 FILLER_0_33_93
*1301 FILLER_0_34_109
*1302 FILLER_0_34_121
*1303 FILLER_0_34_133
*1304 FILLER_0_34_139
*1305 FILLER_0_34_15
*1306 FILLER_0_34_155
*1307 FILLER_0_34_167
*1308 FILLER_0_34_175
*1309 FILLER_0_34_183
*1310 FILLER_0_34_188
*1311 FILLER_0_34_210
*1312 FILLER_0_34_222
*1313 FILLER_0_34_231
*1314 FILLER_0_34_238
*1315 FILLER_0_34_250
*1316 FILLER_0_34_262
*1317 FILLER_0_34_27
*1318 FILLER_0_34_282
*1319 FILLER_0_34_29
*1320 FILLER_0_34_290
*1321 FILLER_0_34_3
*1322 FILLER_0_34_305
*1323 FILLER_0_34_309
*1324 FILLER_0_34_315
*1325 FILLER_0_34_332
*1326 FILLER_0_34_344
*1327 FILLER_0_34_350
*1328 FILLER_0_34_41
*1329 FILLER_0_34_53
*1330 FILLER_0_34_65
*1331 FILLER_0_34_77
*1332 FILLER_0_34_83
*1333 FILLER_0_34_85
*1334 FILLER_0_34_97
*1335 FILLER_0_35_105
*1336 FILLER_0_35_111
*1337 FILLER_0_35_113
*1338 FILLER_0_35_125
*1339 FILLER_0_35_137
*1340 FILLER_0_35_143
*1341 FILLER_0_35_15
*1342 FILLER_0_35_150
*1343 FILLER_0_35_163
*1344 FILLER_0_35_167
*1345 FILLER_0_35_169
*1346 FILLER_0_35_201
*1347 FILLER_0_35_207
*1348 FILLER_0_35_225
*1349 FILLER_0_35_27
*1350 FILLER_0_35_273
*1351 FILLER_0_35_3
*1352 FILLER_0_35_307
*1353 FILLER_0_35_322
*1354 FILLER_0_35_350
*1355 FILLER_0_35_39
*1356 FILLER_0_35_51
*1357 FILLER_0_35_55
*1358 FILLER_0_35_57
*1359 FILLER_0_35_69
*1360 FILLER_0_35_81
*1361 FILLER_0_35_93
*1362 FILLER_0_36_109
*1363 FILLER_0_36_121
*1364 FILLER_0_36_144
*1365 FILLER_0_36_15
*1366 FILLER_0_36_164
*1367 FILLER_0_36_174
*1368 FILLER_0_36_186
*1369 FILLER_0_36_194
*1370 FILLER_0_36_206
*1371 FILLER_0_36_215
*1372 FILLER_0_36_243
*1373 FILLER_0_36_251
*1374 FILLER_0_36_253
*1375 FILLER_0_36_269
*1376 FILLER_0_36_27
*1377 FILLER_0_36_289
*1378 FILLER_0_36_29
*1379 FILLER_0_36_299
*1380 FILLER_0_36_3
*1381 FILLER_0_36_305
*1382 FILLER_0_36_309
*1383 FILLER_0_36_328
*1384 FILLER_0_36_334
*1385 FILLER_0_36_41
*1386 FILLER_0_36_53
*1387 FILLER_0_36_65
*1388 FILLER_0_36_77
*1389 FILLER_0_36_83
*1390 FILLER_0_36_85
*1391 FILLER_0_36_97
*1392 FILLER_0_37_105
*1393 FILLER_0_37_111
*1394 FILLER_0_37_113
*1395 FILLER_0_37_125
*1396 FILLER_0_37_137
*1397 FILLER_0_37_15
*1398 FILLER_0_37_152
*1399 FILLER_0_37_164
*1400 FILLER_0_37_182
*1401 FILLER_0_37_195
*1402 FILLER_0_37_215
*1403 FILLER_0_37_222
*1404 FILLER_0_37_233
*1405 FILLER_0_37_259
*1406 FILLER_0_37_27
*1407 FILLER_0_37_276
*1408 FILLER_0_37_3
*1409 FILLER_0_37_313
*1410 FILLER_0_37_321
*1411 FILLER_0_37_335
*1412 FILLER_0_37_337
*1413 FILLER_0_37_348
*1414 FILLER_0_37_39
*1415 FILLER_0_37_51
*1416 FILLER_0_37_55
*1417 FILLER_0_37_57
*1418 FILLER_0_37_69
*1419 FILLER_0_37_81
*1420 FILLER_0_37_93
*1421 FILLER_0_38_102
*1422 FILLER_0_38_106
*1423 FILLER_0_38_110
*1424 FILLER_0_38_113
*1425 FILLER_0_38_118
*1426 FILLER_0_38_122
*1427 FILLER_0_38_126
*1428 FILLER_0_38_130
*1429 FILLER_0_38_134
*1430 FILLER_0_38_14
*1431 FILLER_0_38_141
*1432 FILLER_0_38_146
*1433 FILLER_0_38_155
*1434 FILLER_0_38_167
*1435 FILLER_0_38_169
*1436 FILLER_0_38_174
*1437 FILLER_0_38_18
*1438 FILLER_0_38_185
*1439 FILLER_0_38_190
*1440 FILLER_0_38_197
*1441 FILLER_0_38_207
*1442 FILLER_0_38_22
*1443 FILLER_0_38_223
*1444 FILLER_0_38_225
*1445 FILLER_0_38_230
*1446 FILLER_0_38_234
*1447 FILLER_0_38_238
*1448 FILLER_0_38_251
*1449 FILLER_0_38_256
*1450 FILLER_0_38_262
*1451 FILLER_0_38_274
*1452 FILLER_0_38_289
*1453 FILLER_0_38_3
*1454 FILLER_0_38_301
*1455 FILLER_0_38_32
*1456 FILLER_0_38_320
*1457 FILLER_0_38_335
*1458 FILLER_0_38_347
*1459 FILLER_0_38_38
*1460 FILLER_0_38_42
*1461 FILLER_0_38_46
*1462 FILLER_0_38_50
*1463 FILLER_0_38_54
*1464 FILLER_0_38_57
*1465 FILLER_0_38_62
*1466 FILLER_0_38_66
*1467 FILLER_0_38_70
*1468 FILLER_0_38_74
*1469 FILLER_0_38_78
*1470 FILLER_0_38_88
*1471 FILLER_0_38_94
*1472 FILLER_0_38_98
*1473 FILLER_0_3_105
*1474 FILLER_0_3_111
*1475 FILLER_0_3_113
*1476 FILLER_0_3_125
*1477 FILLER_0_3_137
*1478 FILLER_0_3_149
*1479 FILLER_0_3_15
*1480 FILLER_0_3_161
*1481 FILLER_0_3_167
*1482 FILLER_0_3_169
*1483 FILLER_0_3_181
*1484 FILLER_0_3_193
*1485 FILLER_0_3_205
*1486 FILLER_0_3_217
*1487 FILLER_0_3_223
*1488 FILLER_0_3_225
*1489 FILLER_0_3_237
*1490 FILLER_0_3_249
*1491 FILLER_0_3_261
*1492 FILLER_0_3_27
*1493 FILLER_0_3_273
*1494 FILLER_0_3_279
*1495 FILLER_0_3_281
*1496 FILLER_0_3_293
*1497 FILLER_0_3_3
*1498 FILLER_0_3_305
*1499 FILLER_0_3_317
*1500 FILLER_0_3_329
*1501 FILLER_0_3_335
*1502 FILLER_0_3_337
*1503 FILLER_0_3_349
*1504 FILLER_0_3_39
*1505 FILLER_0_3_51
*1506 FILLER_0_3_55
*1507 FILLER_0_3_57
*1508 FILLER_0_3_69
*1509 FILLER_0_3_81
*1510 FILLER_0_3_93
*1511 FILLER_0_4_109
*1512 FILLER_0_4_121
*1513 FILLER_0_4_133
*1514 FILLER_0_4_139
*1515 FILLER_0_4_141
*1516 FILLER_0_4_15
*1517 FILLER_0_4_153
*1518 FILLER_0_4_165
*1519 FILLER_0_4_177
*1520 FILLER_0_4_189
*1521 FILLER_0_4_195
*1522 FILLER_0_4_197
*1523 FILLER_0_4_209
*1524 FILLER_0_4_221
*1525 FILLER_0_4_233
*1526 FILLER_0_4_245
*1527 FILLER_0_4_251
*1528 FILLER_0_4_253
*1529 FILLER_0_4_265
*1530 FILLER_0_4_27
*1531 FILLER_0_4_277
*1532 FILLER_0_4_289
*1533 FILLER_0_4_29
*1534 FILLER_0_4_3
*1535 FILLER_0_4_301
*1536 FILLER_0_4_307
*1537 FILLER_0_4_309
*1538 FILLER_0_4_321
*1539 FILLER_0_4_333
*1540 FILLER_0_4_345
*1541 FILLER_0_4_41
*1542 FILLER_0_4_53
*1543 FILLER_0_4_65
*1544 FILLER_0_4_77
*1545 FILLER_0_4_83
*1546 FILLER_0_4_85
*1547 FILLER_0_4_97
*1548 FILLER_0_5_105
*1549 FILLER_0_5_111
*1550 FILLER_0_5_113
*1551 FILLER_0_5_125
*1552 FILLER_0_5_137
*1553 FILLER_0_5_149
*1554 FILLER_0_5_15
*1555 FILLER_0_5_161
*1556 FILLER_0_5_167
*1557 FILLER_0_5_169
*1558 FILLER_0_5_181
*1559 FILLER_0_5_193
*1560 FILLER_0_5_205
*1561 FILLER_0_5_217
*1562 FILLER_0_5_223