*SPEF "ieee 1481-1999"
*DESIGN "tt_um_vga_clock"
*DATE "11:11:11 Fri 11 11, 1111"
*VENDOR "OpenRCX"
*PROGRAM "Parallel Extraction"
*VERSION "1.0"
*DESIGN_FLOW "NAME_SCOPE LOCAL" "PIN_CAP NONE"
*DIVIDER /
*DELIMITER :
*BUS_DELIMITER []
*T_UNIT 1 NS
*C_UNIT 1 PF
*R_UNIT 1 OHM
*L_UNIT 1 HENRY

*NAME_MAP
*3 clk
*4 ena
*5 rst_n
*6 ui_in[0]
*7 ui_in[1]
*8 ui_in[2]
*9 ui_in[3]
*10 ui_in[4]
*11 ui_in[5]
*12 ui_in[6]
*13 ui_in[7]
*14 uio_in[0]
*15 uio_in[1]
*16 uio_in[2]
*17 uio_in[3]
*18 uio_in[4]
*19 uio_in[5]
*20 uio_in[6]
*21 uio_in[7]
*22 net5
*23 net6
*24 net7
*25 net8
*26 net9
*27 net10
*28 net11
*29 net12
*30 net13
*31 net14
*32 net15
*33 net16
*34 net17
*35 net18
*36 net19
*37 net20
*38 uo_out[0]
*39 uo_out[1]
*40 uo_out[2]
*41 uo_out[3]
*42 uo_out[4]
*43 uo_out[5]
*44 uo_out[6]
*45 uo_out[7]
*46 _0000_
*47 _0001_
*48 _0002_
*49 _0003_
*50 _0004_
*51 _0005_
*52 _0006_
*53 _0007_
*54 _0008_
*55 _0009_
*56 _0010_
*57 _0011_
*58 _0012_
*59 _0013_
*60 _0014_
*61 _0015_
*62 _0016_
*63 _0017_
*64 _0018_
*65 _0019_
*66 _0020_
*67 _0021_
*68 _0022_
*69 _0023_
*70 _0024_
*71 _0025_
*72 _0026_
*73 _0027_
*74 _0028_
*75 _0029_
*76 _0030_
*77 _0031_
*78 _0032_
*79 _0033_
*80 _0034_
*81 _0035_
*82 _0036_
*83 _0037_
*84 _0038_
*85 _0039_
*86 _0040_
*87 _0041_
*88 _0042_
*89 _0043_
*90 _0044_
*91 _0045_
*92 _0046_
*93 _0047_
*94 _0048_
*95 _0049_
*96 _0050_
*97 _0051_
*98 _0052_
*99 _0053_
*100 _0054_
*101 _0055_
*102 _0056_
*103 _0057_
*104 _0058_
*105 _0059_
*106 _0060_
*107 _0061_
*108 _0062_
*109 _0063_
*110 _0064_
*111 _0065_
*112 _0066_
*113 _0067_
*114 _0068_
*115 _0069_
*116 _0070_
*117 _0071_
*118 _0072_
*119 _0073_
*120 _0074_
*121 _0075_
*122 _0076_
*123 _0077_
*124 _0078_
*125 _0079_
*126 _0080_
*127 _0081_
*128 _0082_
*129 _0083_
*130 _0084_
*131 _0085_
*132 _0086_
*133 _0087_
*134 _0088_
*135 _0089_
*136 _0090_
*137 _0091_
*138 _0092_
*139 _0093_
*140 _0094_
*141 _0095_
*142 _0096_
*143 _0097_
*144 _0098_
*145 _0099_
*146 _0100_
*147 _0101_
*148 _0102_
*149 _0103_
*150 _0104_
*151 _0105_
*152 _0106_
*153 _0107_
*154 _0108_
*155 _0109_
*156 _0110_
*157 _0111_
*158 _0112_
*159 _0113_
*160 _0114_
*161 _0115_
*162 _0116_
*163 _0117_
*164 _0118_
*165 _0119_
*166 _0120_
*167 _0121_
*168 _0122_
*169 _0123_
*170 _0124_
*171 _0125_
*172 _0126_
*173 _0127_
*174 _0128_
*175 _0129_
*176 _0130_
*177 _0131_
*178 _0132_
*179 _0133_
*180 _0134_
*181 _0135_
*182 _0136_
*183 _0137_
*184 _0138_
*185 _0139_
*186 _0140_
*187 _0141_
*188 _0142_
*189 _0143_
*190 _0144_
*191 _0145_
*192 _0146_
*193 _0147_
*194 _0148_
*195 _0149_
*196 _0150_
*197 _0151_
*198 _0152_
*199 _0153_
*200 _0154_
*201 _0155_
*202 _0156_
*203 _0157_
*204 _0158_
*205 _0159_
*206 _0160_
*207 _0161_
*208 _0162_
*209 _0163_
*210 _0164_
*211 _0165_
*212 _0166_
*213 _0167_
*214 _0168_
*215 _0169_
*216 _0170_
*217 _0171_
*218 _0172_
*219 _0173_
*220 _0174_
*221 _0175_
*222 _0176_
*223 _0177_
*224 _0178_
*225 _0179_
*226 _0180_
*227 _0181_
*228 _0182_
*229 _0183_
*230 _0184_
*231 _0185_
*232 _0186_
*233 _0187_
*234 _0188_
*235 _0189_
*236 _0190_
*237 _0191_
*238 _0192_
*239 _0193_
*240 _0194_
*241 _0195_
*242 _0196_
*243 _0197_
*244 _0198_
*245 _0199_
*246 _0200_
*247 _0201_
*248 _0202_
*249 _0203_
*250 _0204_
*251 _0205_
*252 _0206_
*253 _0207_
*254 _0208_
*255 _0209_
*256 _0210_
*257 _0211_
*258 _0212_
*259 _0213_
*260 _0214_
*261 _0215_
*262 _0216_
*263 _0217_
*264 _0218_
*265 _0219_
*266 _0220_
*267 _0221_
*268 _0222_
*269 _0223_
*270 _0224_
*271 _0225_
*272 _0226_
*273 _0227_
*274 _0228_
*275 _0229_
*276 _0230_
*277 _0231_
*278 _0232_
*279 _0233_
*280 _0234_
*281 _0235_
*282 _0236_
*283 _0237_
*284 _0238_
*285 _0239_
*286 _0240_
*287 _0241_
*288 _0242_
*289 _0243_
*290 _0244_
*291 _0245_
*292 _0246_
*293 _0247_
*294 _0248_
*295 _0249_
*296 _0250_
*297 _0251_
*298 _0252_
*299 _0253_
*300 _0254_
*301 _0255_
*302 _0256_
*303 _0257_
*304 _0258_
*305 _0259_
*306 _0260_
*307 _0261_
*308 _0262_
*309 _0263_
*310 _0264_
*311 _0265_
*312 _0266_
*313 _0267_
*314 _0268_
*315 _0269_
*316 _0270_
*317 _0271_
*318 _0272_
*319 _0273_
*320 _0274_
*321 _0275_
*322 _0276_
*323 _0277_
*324 _0278_
*325 _0279_
*326 _0280_
*327 _0281_
*328 _0282_
*329 _0283_
*330 _0284_
*331 _0285_
*332 _0286_
*333 _0287_
*334 _0288_
*335 _0289_
*336 _0290_
*337 _0291_
*338 _0292_
*339 _0293_
*340 _0294_
*341 _0295_
*342 _0296_
*343 _0297_
*344 _0298_
*345 _0299_
*346 _0300_
*347 _0301_
*348 _0302_
*349 _0303_
*350 _0304_
*351 _0305_
*352 _0306_
*353 _0307_
*354 _0308_
*355 _0309_
*356 _0310_
*357 _0311_
*358 _0312_
*359 _0313_
*360 _0314_
*361 _0315_
*362 _0316_
*363 _0317_
*364 _0318_
*365 _0319_
*366 _0320_
*367 _0321_
*368 _0322_
*369 _0323_
*370 _0324_
*371 _0325_
*372 _0326_
*373 _0327_
*374 _0328_
*375 _0329_
*376 _0330_
*377 _0331_
*378 _0332_
*379 _0333_
*380 _0334_
*381 _0335_
*382 _0336_
*383 _0337_
*384 _0338_
*385 _0339_
*386 _0340_
*387 _0341_
*388 _0342_
*389 _0343_
*390 _0344_
*391 _0345_
*392 _0346_
*393 _0347_
*394 _0348_
*395 _0349_
*396 _0350_
*397 _0351_
*398 _0352_
*399 _0353_
*400 _0354_
*401 _0355_
*402 _0356_
*403 _0357_
*404 _0358_
*405 _0359_
*406 _0360_
*407 _0361_
*408 _0362_
*409 _0363_
*410 _0364_
*411 _0365_
*412 _0366_
*413 _0367_
*414 _0368_
*415 _0369_
*416 _0370_
*417 _0371_
*418 _0372_
*419 _0373_
*420 _0374_
*421 _0375_
*422 _0376_
*423 _0377_
*424 _0378_
*425 _0379_
*426 _0380_
*427 _0381_
*428 _0382_
*429 _0383_
*430 _0384_
*431 _0385_
*432 _0386_
*433 _0387_
*434 _0388_
*435 _0389_
*436 _0390_
*437 _0391_
*438 _0392_
*439 _0393_
*440 _0394_
*441 _0395_
*442 _0396_
*443 _0397_
*444 _0398_
*445 _0399_
*446 _0400_
*447 _0401_
*448 _0402_
*449 _0403_
*450 _0404_
*451 _0405_
*452 _0406_
*453 _0407_
*454 _0408_
*455 _0409_
*456 _0410_
*457 _0411_
*458 _0412_
*459 _0413_
*460 _0414_
*461 _0415_
*462 _0416_
*463 _0417_
*464 _0418_
*465 _0419_
*466 _0420_
*467 _0421_
*468 _0422_
*469 _0423_
*470 _0424_
*471 _0425_
*472 _0426_
*473 _0427_
*474 _0428_
*475 _0429_
*476 _0430_
*477 _0431_
*478 _0432_
*479 _0433_
*480 _0434_
*481 _0435_
*482 _0436_
*483 _0437_
*484 _0438_
*485 _0439_
*486 _0440_
*487 _0441_
*488 _0442_
*489 _0443_
*490 _0444_
*491 _0445_
*492 _0446_
*493 _0447_
*494 _0448_
*495 _0449_
*496 _0450_
*497 _0451_
*498 _0452_
*499 _0453_
*500 _0454_
*501 _0455_
*502 _0456_
*503 _0457_
*504 _0458_
*505 _0459_
*506 _0460_
*507 _0461_
*508 _0462_
*509 _0463_
*510 _0464_
*511 _0465_
*512 _0466_
*513 _0467_
*514 _0468_
*515 _0469_
*516 _0470_
*517 _0471_
*518 _0472_
*519 _0473_
*520 _0474_
*521 _0475_
*522 _0476_
*523 _0477_
*524 _0478_
*525 _0479_
*526 _0480_
*527 _0481_
*528 _0482_
*529 _0483_
*530 _0484_
*531 _0485_
*532 _0486_
*533 _0487_
*534 _0488_
*535 _0489_
*536 _0490_
*537 _0491_
*538 _0492_
*539 _0493_
*540 _0494_
*541 _0495_
*542 _0496_
*543 _0497_
*544 _0498_
*545 _0499_
*546 _0500_
*547 _0501_
*548 _0502_
*549 _0503_
*550 _0504_
*551 _0505_
*552 _0506_
*553 _0507_
*554 _0508_
*555 _0509_
*556 _0510_
*557 _0511_
*558 _0512_
*559 _0513_
*560 _0514_
*561 _0515_
*562 _0516_
*563 _0517_
*564 _0518_
*565 _0519_
*566 _0520_
*567 _0521_
*568 _0522_
*569 _0523_
*570 _0524_
*571 _0525_
*572 _0526_
*573 _0527_
*574 _0528_
*575 _0529_
*576 _0530_
*577 _0531_
*578 _0532_
*579 _0533_
*580 _0534_
*581 _0535_
*582 _0536_
*583 _0537_
*584 _0538_
*585 _0539_
*586 _0540_
*587 _0541_
*588 _0542_
*589 _0543_
*590 _0544_
*591 _0545_
*592 _0546_
*593 _0547_
*594 _0548_
*595 _0549_
*596 _0550_
*597 _0551_
*598 _0552_
*599 _0553_
*600 _0554_
*601 _0555_
*602 _0556_
*603 _0557_
*604 _0558_
*605 _0559_
*606 _0560_
*607 _0561_
*608 _0562_
*609 _0563_
*610 _0564_
*611 _0565_
*612 _0566_
*613 _0567_
*614 _0568_
*615 _0569_
*616 _0570_
*617 _0571_
*618 _0572_
*619 _0573_
*620 _0574_
*621 _0575_
*622 _0576_
*623 _0577_
*624 _0578_
*625 _0579_
*626 _0580_
*627 _0581_
*628 _0582_
*629 _0583_
*630 _0584_
*631 _0585_
*632 _0586_
*633 _0587_
*634 _0588_
*635 _0589_
*636 _0590_
*637 _0591_
*638 _0592_
*639 _0593_
*640 _0594_
*641 _0595_
*642 _0596_
*643 _0597_
*644 _0598_
*645 _0599_
*646 _0600_
*647 _0601_
*648 _0602_
*649 _0603_
*650 _0604_
*651 _0605_
*652 _0606_
*653 _0607_
*654 _0608_
*655 _0609_
*656 _0610_
*657 _0611_
*658 _0612_
*659 _0613_
*660 _0614_
*661 _0615_
*662 _0616_
*663 _0617_
*664 _0618_
*665 _0619_
*666 _0620_
*667 _0621_
*668 _0622_
*669 _0623_
*670 _0624_
*671 _0625_
*672 _0626_
*673 _0627_
*674 _0628_
*675 _0629_
*676 _0630_
*677 _0631_
*678 _0632_
*679 _0633_
*680 _0634_
*681 _0635_
*682 _0636_
*683 _0637_
*684 _0638_
*685 clknet_0_clk
*686 clknet_4_0_0_clk
*687 clknet_4_10_0_clk
*688 clknet_4_11_0_clk
*689 clknet_4_12_0_clk
*690 clknet_4_13_0_clk
*691 clknet_4_14_0_clk
*692 clknet_4_15_0_clk
*693 clknet_4_1_0_clk
*694 clknet_4_2_0_clk
*695 clknet_4_3_0_clk
*696 clknet_4_4_0_clk
*697 clknet_4_5_0_clk
*698 clknet_4_6_0_clk
*699 clknet_4_7_0_clk
*700 clknet_4_8_0_clk
*701 clknet_4_9_0_clk
*702 net1
*703 net2
*704 net21
*705 net22
*706 net23
*707 net24
*708 net25
*709 net26
*710 net27
*711 net28
*712 net29
*713 net3
*714 net30
*715 net31
*716 net32
*717 net33
*718 net34
*719 net35
*720 net36
*721 net37
*722 net38
*723 net39
*724 net4
*725 net40
*726 net41
*727 net42
*728 net43
*729 net44
*730 net45
*731 net46
*732 net47
*733 net48
*734 net49
*735 net50
*736 net51
*737 net52
*738 net53
*739 net54
*740 net55
*741 net56
*742 net57
*743 net58
*744 net59
*745 net60
*746 net61
*747 net62
*748 net63
*749 net64
*750 net65
*751 net66
*752 net67
*753 net68
*754 net69
*755 net70
*756 net71
*757 net72
*758 net73
*759 net74
*760 net75
*761 net76
*762 net77
*763 net78
*764 net79
*765 net80
*766 net81
*767 net82
*768 net83
*769 net84
*770 net85
*771 net86
*772 net87
*773 vga_clock\.col_index\[0\]
*774 vga_clock\.col_index\[1\]
*775 vga_clock\.col_index_q\[0\]
*776 vga_clock\.col_index_q\[1\]
*777 vga_clock\.color\[0\]
*778 vga_clock\.color\[1\]
*779 vga_clock\.color\[2\]
*780 vga_clock\.color\[3\]
*781 vga_clock\.color\[4\]
*782 vga_clock\.color\[5\]
*783 vga_clock\.color_offset\[0\]
*784 vga_clock\.color_offset\[1\]
*785 vga_clock\.color_offset\[2\]
*786 vga_clock\.digit_0\.char\[0\]
*787 vga_clock\.digit_0\.char\[1\]
*788 vga_clock\.digit_0\.char\[2\]
*789 vga_clock\.digit_0\.char\[3\]
*790 vga_clock\.digit_0\.digit_index\[0\]
*791 vga_clock\.digit_0\.digit_index\[1\]
*792 vga_clock\.digit_0\.digit_index\[2\]
*793 vga_clock\.digit_0\.digit_index\[3\]
*794 vga_clock\.digit_0\.digit_index\[4\]
*795 vga_clock\.digit_0\.digit_index\[5\]
*796 vga_clock\.digit_0\.number\[0\]
*797 vga_clock\.digit_0\.number\[1\]
*798 vga_clock\.digit_0\.x_block\[0\]
*799 vga_clock\.digit_0\.x_block\[1\]
*800 vga_clock\.draw
*801 vga_clock\.font_0\.dout\[1\]
*802 vga_clock\.font_0\.dout\[2\]
*803 vga_clock\.font_0\.dout\[3\]
*804 vga_clock\.hrs_d\[0\]
*805 vga_clock\.hrs_d\[1\]
*806 vga_clock\.hrs_u\[0\]
*807 vga_clock\.hrs_u\[1\]
*808 vga_clock\.hrs_u\[2\]
*809 vga_clock\.hrs_u\[3\]
*810 vga_clock\.hsync
*811 vga_clock\.min_d\[0\]
*812 vga_clock\.min_d\[1\]
*813 vga_clock\.min_d\[2\]
*814 vga_clock\.min_u\[0\]
*815 vga_clock\.min_u\[1\]
*816 vga_clock\.min_u\[2\]
*817 vga_clock\.min_u\[3\]
*818 vga_clock\.pulse_hrs\.comp\[0\]
*819 vga_clock\.pulse_hrs\.comp\[1\]
*820 vga_clock\.pulse_hrs\.comp\[2\]
*821 vga_clock\.pulse_hrs\.comp\[3\]
*822 vga_clock\.pulse_hrs\.comp\[4\]
*823 vga_clock\.pulse_hrs\.count\[0\]
*824 vga_clock\.pulse_hrs\.count\[1\]
*825 vga_clock\.pulse_hrs\.count\[2\]
*826 vga_clock\.pulse_hrs\.count\[3\]
*827 vga_clock\.pulse_hrs\.count\[4\]
*828 vga_clock\.pulse_min\.comp\[0\]
*829 vga_clock\.pulse_min\.comp\[1\]
*830 vga_clock\.pulse_min\.comp\[2\]
*831 vga_clock\.pulse_min\.comp\[3\]
*832 vga_clock\.pulse_min\.comp\[4\]
*833 vga_clock\.pulse_min\.count\[0\]
*834 vga_clock\.pulse_min\.count\[1\]
*835 vga_clock\.pulse_min\.count\[2\]
*836 vga_clock\.pulse_min\.count\[3\]
*837 vga_clock\.pulse_min\.count\[4\]
*838 vga_clock\.pulse_sec\.comp\[0\]
*839 vga_clock\.pulse_sec\.comp\[1\]
*840 vga_clock\.pulse_sec\.comp\[2\]
*841 vga_clock\.pulse_sec\.comp\[3\]
*842 vga_clock\.pulse_sec\.comp\[4\]
*843 vga_clock\.pulse_sec\.count\[0\]
*844 vga_clock\.pulse_sec\.count\[1\]
*845 vga_clock\.pulse_sec\.count\[2\]
*846 vga_clock\.pulse_sec\.count\[3\]
*847 vga_clock\.pulse_sec\.count\[4\]
*848 vga_clock\.sec_counter\[0\]
*849 vga_clock\.sec_counter\[10\]
*850 vga_clock\.sec_counter\[11\]
*851 vga_clock\.sec_counter\[12\]
*852 vga_clock\.sec_counter\[13\]
*853 vga_clock\.sec_counter\[14\]
*854 vga_clock\.sec_counter\[15\]
*855 vga_clock\.sec_counter\[16\]
*856 vga_clock\.sec_counter\[17\]
*857 vga_clock\.sec_counter\[18\]
*858 vga_clock\.sec_counter\[19\]
*859 vga_clock\.sec_counter\[1\]
*860 vga_clock\.sec_counter\[20\]
*861 vga_clock\.sec_counter\[21\]
*862 vga_clock\.sec_counter\[22\]
*863 vga_clock\.sec_counter\[23\]
*864 vga_clock\.sec_counter\[24\]
*865 vga_clock\.sec_counter\[25\]
*866 vga_clock\.sec_counter\[2\]
*867 vga_clock\.sec_counter\[3\]
*868 vga_clock\.sec_counter\[4\]
*869 vga_clock\.sec_counter\[5\]
*870 vga_clock\.sec_counter\[6\]
*871 vga_clock\.sec_counter\[7\]
*872 vga_clock\.sec_counter\[8\]
*873 vga_clock\.sec_counter\[9\]
*874 vga_clock\.sec_d\[0\]
*875 vga_clock\.sec_d\[1\]
*876 vga_clock\.sec_d\[2\]
*877 vga_clock\.sec_u\[0\]
*878 vga_clock\.sec_u\[1\]
*879 vga_clock\.sec_u\[2\]
*880 vga_clock\.sec_u\[3\]
*881 vga_clock\.vga_0\.hc\[0\]
*882 vga_clock\.vga_0\.hc\[1\]
*883 vga_clock\.vga_0\.hc\[2\]
*884 vga_clock\.vga_0\.hc\[3\]
*885 vga_clock\.vga_0\.hc\[4\]
*886 vga_clock\.vga_0\.hc\[5\]
*887 vga_clock\.vga_0\.hc\[6\]
*888 vga_clock\.vga_0\.hc\[7\]
*889 vga_clock\.vga_0\.hc\[8\]
*890 vga_clock\.vga_0\.hc\[9\]
*891 vga_clock\.vga_0\.vc\[0\]
*892 vga_clock\.vga_0\.vc\[1\]
*893 vga_clock\.vga_0\.vc\[2\]
*894 vga_clock\.vga_0\.vc\[3\]
*895 vga_clock\.vga_0\.vc\[4\]
*896 vga_clock\.vga_0\.vc\[5\]
*897 vga_clock\.vga_0\.vc\[6\]
*898 vga_clock\.vga_0\.vc\[7\]
*899 vga_clock\.vga_0\.vc\[8\]
*900 vga_clock\.vga_0\.vc\[9\]
*901 vga_clock\.vga_0\.vsync
*902 vga_clock\.vga_0\.x_px\[0\]
*903 vga_clock\.vga_0\.x_px\[1\]
*904 vga_clock\.vga_0\.x_px\[2\]
*905 vga_clock\.vga_0\.x_px\[3\]
*906 vga_clock\.vga_0\.x_px\[6\]
*907 vga_clock\.vga_0\.x_px\[7\]
*908 vga_clock\.vga_0\.x_px\[8\]
*909 vga_clock\.vga_0\.x_px\[9\]
*910 vga_clock\.vga_0\.y_px\[0\]
*911 vga_clock\.vga_0\.y_px\[1\]
*912 vga_clock\.vga_0\.y_px\[2\]
*913 vga_clock\.vga_0\.y_px\[3\]
*914 vga_clock\.vga_0\.y_px\[4\]
*915 vga_clock\.vga_0\.y_px\[5\]
*916 vga_clock\.vga_0\.y_px\[6\]
*917 vga_clock\.vga_0\.y_px\[7\]
*918 vga_clock\.vga_0\.y_px\[8\]
*919 vga_clock\.vga_0\.y_px\[9\]
*920 vga_clock\.x_block_q\[5\]
*921 vga_clock\.y_block\[0\]
*922 vga_clock\.y_block\[1\]
*923 vga_clock\.y_block\[2\]
*924 vga_clock\.y_block\[3\]
*925 vga_clock\.y_block\[4\]
*926 vga_clock\.y_block\[5\]
*927 vga_clock\.y_block_q\[0\]
*928 vga_clock\.y_block_q\[1\]
*929 vga_clock\.y_block_q\[2\]
*930 vga_clock\.y_block_q\[3\]
*931 vga_clock\.y_block_q\[4\]
*932 vga_clock\.y_block_q\[5\]
*933 FILLER_0_0_109
*934 FILLER_0_0_113
*935 FILLER_0_0_125
*936 FILLER_0_0_137
*937 FILLER_0_0_141
*938 FILLER_0_0_15
*939 FILLER_0_0_153
*940 FILLER_0_0_165
*941 FILLER_0_0_169
*942 FILLER_0_0_181
*943 FILLER_0_0_193
*944 FILLER_0_0_197
*945 FILLER_0_0_205
*946 FILLER_0_0_210
*947 FILLER_0_0_215
*948 FILLER_0_0_223
*949 FILLER_0_0_225
*950 FILLER_0_0_237
*951 FILLER_0_0_249
*952 FILLER_0_0_253
*953 FILLER_0_0_265
*954 FILLER_0_0_27
*955 FILLER_0_0_277
*956 FILLER_0_0_281
*957 FILLER_0_0_29
*958 FILLER_0_0_293
*959 FILLER_0_0_3
*960 FILLER_0_0_305
*961 FILLER_0_0_309
*962 FILLER_0_0_321
*963 FILLER_0_0_333
*964 FILLER_0_0_337
*965 FILLER_0_0_349
*966 FILLER_0_0_41
*967 FILLER_0_0_53
*968 FILLER_0_0_57
*969 FILLER_0_0_69
*970 FILLER_0_0_81
*971 FILLER_0_0_85
*972 FILLER_0_0_97
*973 FILLER_0_10_106
*974 FILLER_0_10_118
*975 FILLER_0_10_130
*976 FILLER_0_10_138
*977 FILLER_0_10_141
*978 FILLER_0_10_15
*979 FILLER_0_10_190
*980 FILLER_0_10_197
*981 FILLER_0_10_213
*982 FILLER_0_10_221
*983 FILLER_0_10_244
*984 FILLER_0_10_253
*985 FILLER_0_10_265
*986 FILLER_0_10_27
*987 FILLER_0_10_277
*988 FILLER_0_10_281
*989 FILLER_0_10_29
*990 FILLER_0_10_298
*991 FILLER_0_10_3
*992 FILLER_0_10_306
*993 FILLER_0_10_309
*994 FILLER_0_10_317
*995 FILLER_0_10_347
*996 FILLER_0_10_40
*997 FILLER_0_10_44
*998 FILLER_0_10_53
*999 FILLER_0_10_70
*1000 FILLER_0_10_82
*1001 FILLER_0_10_85
*1002 FILLER_0_10_91
*1003 FILLER_0_11_118
*1004 FILLER_0_11_138
*1005 FILLER_0_11_150
*1006 FILLER_0_11_158
*1007 FILLER_0_11_174
*1008 FILLER_0_11_178
*1009 FILLER_0_11_187
*1010 FILLER_0_11_199
*1011 FILLER_0_11_211
*1012 FILLER_0_11_223
*1013 FILLER_0_11_248
*1014 FILLER_0_11_252
*1015 FILLER_0_11_257
*1016 FILLER_0_11_26
*1017 FILLER_0_11_274
*1018 FILLER_0_11_3
*1019 FILLER_0_11_319
*1020 FILLER_0_11_331
*1021 FILLER_0_11_335
*1022 FILLER_0_11_337
*1023 FILLER_0_11_349
*1024 FILLER_0_11_38
*1025 FILLER_0_11_57
*1026 FILLER_0_11_78
*1027 FILLER_0_11_90
*1028 FILLER_0_12_119
*1029 FILLER_0_12_141
*1030 FILLER_0_12_149
*1031 FILLER_0_12_167
*1032 FILLER_0_12_186
*1033 FILLER_0_12_195
*1034 FILLER_0_12_197
*1035 FILLER_0_12_208
*1036 FILLER_0_12_212
*1037 FILLER_0_12_249
*1038 FILLER_0_12_253
*1039 FILLER_0_12_26
*1040 FILLER_0_12_29
*1041 FILLER_0_12_3
*1042 FILLER_0_12_307
*1043 FILLER_0_12_325
*1044 FILLER_0_12_337
*1045 FILLER_0_12_349
*1046 FILLER_0_12_44
*1047 FILLER_0_12_73
*1048 FILLER_0_12_81
*1049 FILLER_0_12_85
*1050 FILLER_0_13_110
*1051 FILLER_0_13_117
*1052 FILLER_0_13_132
*1053 FILLER_0_13_144
*1054 FILLER_0_13_156
*1055 FILLER_0_13_169
*1056 FILLER_0_13_201
*1057 FILLER_0_13_213
*1058 FILLER_0_13_217
*1059 FILLER_0_13_248
*1060 FILLER_0_13_260
*1061 FILLER_0_13_272
*1062 FILLER_0_13_279
*1063 FILLER_0_13_281
*1064 FILLER_0_13_285
*1065 FILLER_0_13_297
*1066 FILLER_0_13_3
*1067 FILLER_0_13_310
*1068 FILLER_0_13_32
*1069 FILLER_0_13_322
*1070 FILLER_0_13_334
*1071 FILLER_0_13_337
*1072 FILLER_0_13_349
*1073 FILLER_0_13_44
*1074 FILLER_0_13_70
*1075 FILLER_0_13_82
*1076 FILLER_0_14_115
*1077 FILLER_0_14_127
*1078 FILLER_0_14_139
*1079 FILLER_0_14_141
*1080 FILLER_0_14_15
*1081 FILLER_0_14_153
*1082 FILLER_0_14_165
*1083 FILLER_0_14_192
*1084 FILLER_0_14_202
*1085 FILLER_0_14_214
*1086 FILLER_0_14_222
*1087 FILLER_0_14_24
*1088 FILLER_0_14_241
*1089 FILLER_0_14_249
*1090 FILLER_0_14_253
*1091 FILLER_0_14_265
*1092 FILLER_0_14_274
*1093 FILLER_0_14_282
*1094 FILLER_0_14_29
*1095 FILLER_0_14_296
*1096 FILLER_0_14_3
*1097 FILLER_0_14_309
*1098 FILLER_0_14_319
*1099 FILLER_0_14_33
*1100 FILLER_0_14_331
*1101 FILLER_0_14_343
*1102 FILLER_0_14_56
*1103 FILLER_0_14_85
*1104 FILLER_0_15_107
*1105 FILLER_0_15_111
*1106 FILLER_0_15_118
*1107 FILLER_0_15_135
*1108 FILLER_0_15_147
*1109 FILLER_0_15_15
*1110 FILLER_0_15_159
*1111 FILLER_0_15_165
*1112 FILLER_0_15_220
*1113 FILLER_0_15_225
*1114 FILLER_0_15_231
*1115 FILLER_0_15_25
*1116 FILLER_0_15_275
*1117 FILLER_0_15_279
*1118 FILLER_0_15_281
*1119 FILLER_0_15_298
*1120 FILLER_0_15_3
*1121 FILLER_0_15_310
*1122 FILLER_0_15_322
*1123 FILLER_0_15_33
*1124 FILLER_0_15_334
*1125 FILLER_0_15_337
*1126 FILLER_0_15_349
*1127 FILLER_0_15_53
*1128 FILLER_0_15_75
*1129 FILLER_0_15_87
*1130 FILLER_0_16_112
*1131 FILLER_0_16_139
*1132 FILLER_0_16_151
*1133 FILLER_0_16_165
*1134 FILLER_0_16_177
*1135 FILLER_0_16_185
*1136 FILLER_0_16_195
*1137 FILLER_0_16_200
*1138 FILLER_0_16_212
*1139 FILLER_0_16_224
*1140 FILLER_0_16_23
*1141 FILLER_0_16_232
*1142 FILLER_0_16_27
*1143 FILLER_0_16_272
*1144 FILLER_0_16_29
*1145 FILLER_0_16_3
*1146 FILLER_0_16_305
*1147 FILLER_0_16_314
*1148 FILLER_0_16_342
*1149 FILLER_0_16_350
*1150 FILLER_0_16_55
*1151 FILLER_0_16_75
*1152 FILLER_0_16_83
*1153 FILLER_0_16_85
*1154 FILLER_0_17_113
*1155 FILLER_0_17_149
*1156 FILLER_0_17_166
*1157 FILLER_0_17_169
*1158 FILLER_0_17_174
*1159 FILLER_0_17_186
*1160 FILLER_0_17_199
*1161 FILLER_0_17_204
*1162 FILLER_0_17_216
*1163 FILLER_0_17_225
*1164 FILLER_0_17_231
*1165 FILLER_0_17_236
*1166 FILLER_0_17_253
*1167 FILLER_0_17_273
*1168 FILLER_0_17_279
*1169 FILLER_0_17_3
*1170 FILLER_0_17_345
*1171 FILLER_0_17_35
*1172 FILLER_0_17_47
*1173 FILLER_0_17_55
*1174 FILLER_0_17_73
*1175 FILLER_0_17_81
*1176 FILLER_0_17_89
*1177 FILLER_0_18_107
*1178 FILLER_0_18_119
*1179 FILLER_0_18_132
*1180 FILLER_0_18_139
*1181 FILLER_0_18_141
*1182 FILLER_0_18_156
*1183 FILLER_0_18_162
*1184 FILLER_0_18_171
*1185 FILLER_0_18_205
*1186 FILLER_0_18_213
*1187 FILLER_0_18_223
*1188 FILLER_0_18_23
*1189 FILLER_0_18_246
*1190 FILLER_0_18_253
*1191 FILLER_0_18_269
*1192 FILLER_0_18_27
*1193 FILLER_0_18_281
*1194 FILLER_0_18_285
*1195 FILLER_0_18_29
*1196 FILLER_0_18_3
*1197 FILLER_0_18_309
*1198 FILLER_0_18_321
*1199 FILLER_0_18_325
*1200 FILLER_0_18_342
*1201 FILLER_0_18_350
*1202 FILLER_0_18_37
*1203 FILLER_0_18_54
*1204 FILLER_0_18_80
*1205 FILLER_0_18_85
*1206 FILLER_0_18_89
*1207 FILLER_0_19_111
*1208 FILLER_0_19_113
*1209 FILLER_0_19_125
*1210 FILLER_0_19_137
*1211 FILLER_0_19_144
*1212 FILLER_0_19_156
*1213 FILLER_0_19_175
*1214 FILLER_0_19_18
*1215 FILLER_0_19_193
*1216 FILLER_0_19_216
*1217 FILLER_0_19_240
*1218 FILLER_0_19_252
*1219 FILLER_0_19_259
*1220 FILLER_0_19_267
*1221 FILLER_0_19_275
*1222 FILLER_0_19_279
*1223 FILLER_0_19_281
*1224 FILLER_0_19_293
*1225 FILLER_0_19_3
*1226 FILLER_0_19_30
*1227 FILLER_0_19_314
*1228 FILLER_0_19_326
*1229 FILLER_0_19_334
*1230 FILLER_0_19_337
*1231 FILLER_0_19_349
*1232 FILLER_0_19_38
*1233 FILLER_0_19_83
*1234 FILLER_0_19_91
*1235 FILLER_0_19_97
*1236 FILLER_0_1_105
*1237 FILLER_0_1_111
*1238 FILLER_0_1_113
*1239 FILLER_0_1_125
*1240 FILLER_0_1_137
*1241 FILLER_0_1_149
*1242 FILLER_0_1_15
*1243 FILLER_0_1_161
*1244 FILLER_0_1_167
*1245 FILLER_0_1_169
*1246 FILLER_0_1_181
*1247 FILLER_0_1_193
*1248 FILLER_0_1_223
*1249 FILLER_0_1_225
*1250 FILLER_0_1_231
*1251 FILLER_0_1_243
*1252 FILLER_0_1_255
*1253 FILLER_0_1_267
*1254 FILLER_0_1_27
*1255 FILLER_0_1_279
*1256 FILLER_0_1_297
*1257 FILLER_0_1_3
*1258 FILLER_0_1_309
*1259 FILLER_0_1_321
*1260 FILLER_0_1_333
*1261 FILLER_0_1_337
*1262 FILLER_0_1_349
*1263 FILLER_0_1_39
*1264 FILLER_0_1_51
*1265 FILLER_0_1_55
*1266 FILLER_0_1_57
*1267 FILLER_0_1_69
*1268 FILLER_0_1_81
*1269 FILLER_0_1_93
*1270 FILLER_0_20_101
*1271 FILLER_0_20_115
*1272 FILLER_0_20_133
*1273 FILLER_0_20_139
*1274 FILLER_0_20_141
*1275 FILLER_0_20_153
*1276 FILLER_0_20_197
*1277 FILLER_0_20_223
*1278 FILLER_0_20_233
*1279 FILLER_0_20_245
*1280 FILLER_0_20_251
*1281 FILLER_0_20_253
*1282 FILLER_0_20_26
*1283 FILLER_0_20_261
*1284 FILLER_0_20_284
*1285 FILLER_0_20_29
*1286 FILLER_0_20_296
*1287 FILLER_0_20_3
*1288 FILLER_0_20_326
*1289 FILLER_0_20_346
*1290 FILLER_0_20_350
*1291 FILLER_0_20_40
*1292 FILLER_0_20_52
*1293 FILLER_0_20_67
*1294 FILLER_0_20_81
*1295 FILLER_0_20_9
*1296 FILLER_0_21_113
*1297 FILLER_0_21_130
*1298 FILLER_0_21_166
*1299 FILLER_0_21_181
*1300 FILLER_0_21_187
*1301 FILLER_0_21_200
*1302 FILLER_0_21_212
*1303 FILLER_0_21_225
*1304 FILLER_0_21_242
*1305 FILLER_0_21_254
*1306 FILLER_0_21_28
*1307 FILLER_0_21_297
*1308 FILLER_0_21_3
*1309 FILLER_0_21_303
*1310 FILLER_0_21_334
*1311 FILLER_0_21_340
*1312 FILLER_0_21_348
*1313 FILLER_0_21_40
*1314 FILLER_0_21_52
*1315 FILLER_0_21_57
*1316 FILLER_0_21_79
*1317 FILLER_0_22_100
*1318 FILLER_0_22_108
*1319 FILLER_0_22_133
*1320 FILLER_0_22_139
*1321 FILLER_0_22_141
*1322 FILLER_0_22_179
*1323 FILLER_0_22_18
*1324 FILLER_0_22_184
*1325 FILLER_0_22_197
*1326 FILLER_0_22_209
*1327 FILLER_0_22_250
*1328 FILLER_0_22_253
*1329 FILLER_0_22_261
*1330 FILLER_0_22_27
*1331 FILLER_0_22_285
*1332 FILLER_0_22_29
*1333 FILLER_0_22_290
*1334 FILLER_0_22_298
*1335 FILLER_0_22_3
*1336 FILLER_0_22_309
*1337 FILLER_0_22_321
*1338 FILLER_0_22_328
*1339 FILLER_0_22_346
*1340 FILLER_0_22_350
*1341 FILLER_0_22_38
*1342 FILLER_0_22_50
*1343 FILLER_0_22_62
*1344 FILLER_0_22_82
*1345 FILLER_0_22_85
*1346 FILLER_0_22_9
*1347 FILLER_0_22_93
*1348 FILLER_0_23_106
*1349 FILLER_0_23_11
*1350 FILLER_0_23_119
*1351 FILLER_0_23_125
*1352 FILLER_0_23_137
*1353 FILLER_0_23_151
*1354 FILLER_0_23_159
*1355 FILLER_0_23_167
*1356 FILLER_0_23_169
*1357 FILLER_0_23_17
*1358 FILLER_0_23_193
*1359 FILLER_0_23_205
*1360 FILLER_0_23_250
*1361 FILLER_0_23_262
*1362 FILLER_0_23_281
*1363 FILLER_0_23_290
*1364 FILLER_0_23_3
*1365 FILLER_0_23_302
*1366 FILLER_0_23_331
*1367 FILLER_0_23_335
*1368 FILLER_0_23_337
*1369 FILLER_0_23_349
*1370 FILLER_0_23_45
*1371 FILLER_0_23_53
*1372 FILLER_0_23_57
*1373 FILLER_0_23_69
*1374 FILLER_0_23_77
*1375 FILLER_0_23_82
*1376 FILLER_0_23_94
*1377 FILLER_0_24_106
*1378 FILLER_0_24_118
*1379 FILLER_0_24_128
*1380 FILLER_0_24_151
*1381 FILLER_0_24_163
*1382 FILLER_0_24_175
*1383 FILLER_0_24_185
*1384 FILLER_0_24_193
*1385 FILLER_0_24_197
*1386 FILLER_0_24_212
*1387 FILLER_0_24_23
*1388 FILLER_0_24_242
*1389 FILLER_0_24_250
*1390 FILLER_0_24_253
*1391 FILLER_0_24_265
*1392 FILLER_0_24_27
*1393 FILLER_0_24_279
*1394 FILLER_0_24_291
*1395 FILLER_0_24_298
*1396 FILLER_0_24_3
*1397 FILLER_0_24_304
*1398 FILLER_0_24_313
*1399 FILLER_0_24_318
*1400 FILLER_0_24_329
*1401 FILLER_0_24_346
*1402 FILLER_0_24_350
*1403 FILLER_0_24_40
*1404 FILLER_0_24_52
*1405 FILLER_0_24_70
*1406 FILLER_0_24_78
*1407 FILLER_0_24_91
*1408 FILLER_0_24_99
*1409 FILLER_0_25_113
*1410 FILLER_0_25_117
*1411 FILLER_0_25_134
*1412 FILLER_0_25_140
*1413 FILLER_0_25_148
*1414 FILLER_0_25_160
*1415 FILLER_0_25_169
*1416 FILLER_0_25_173
*1417 FILLER_0_25_190
*1418 FILLER_0_25_199
*1419 FILLER_0_25_223
*1420 FILLER_0_25_225
*1421 FILLER_0_25_245
*1422 FILLER_0_25_257
*1423 FILLER_0_25_26
*1424 FILLER_0_25_269
*1425 FILLER_0_25_277
*1426 FILLER_0_25_293
*1427 FILLER_0_25_3
*1428 FILLER_0_25_30
*1429 FILLER_0_25_313
*1430 FILLER_0_25_320
*1431 FILLER_0_25_329
*1432 FILLER_0_25_335
*1433 FILLER_0_25_348
*1434 FILLER_0_25_43
*1435 FILLER_0_25_55
*1436 FILLER_0_26_102
*1437 FILLER_0_26_108
*1438 FILLER_0_26_11
*1439 FILLER_0_26_139
*1440 FILLER_0_26_149
*1441 FILLER_0_26_167
*1442 FILLER_0_26_17
*1443 FILLER_0_26_195
*1444 FILLER_0_26_209
*1445 FILLER_0_26_217
*1446 FILLER_0_26_249
*1447 FILLER_0_26_25
*1448 FILLER_0_26_253
*1449 FILLER_0_26_285
*1450 FILLER_0_26_3
*1451 FILLER_0_26_305
*1452 FILLER_0_26_321
*1453 FILLER_0_26_346
*1454 FILLER_0_26_350
*1455 FILLER_0_26_58
*1456 FILLER_0_26_79
*1457 FILLER_0_26_83
*1458 FILLER_0_26_95
*1459 FILLER_0_27_102
*1460 FILLER_0_27_110
*1461 FILLER_0_27_128
*1462 FILLER_0_27_145
*1463 FILLER_0_27_149
*1464 FILLER_0_27_167
*1465 FILLER_0_27_169
*1466 FILLER_0_27_188
*1467 FILLER_0_27_205
*1468 FILLER_0_27_217
*1469 FILLER_0_27_223
*1470 FILLER_0_27_225
*1471 FILLER_0_27_237
*1472 FILLER_0_27_258
*1473 FILLER_0_27_270
*1474 FILLER_0_27_278
*1475 FILLER_0_27_297
*1476 FILLER_0_27_3
*1477 FILLER_0_27_319
*1478 FILLER_0_27_32
*1479 FILLER_0_27_331
*1480 FILLER_0_27_335
*1481 FILLER_0_27_337
*1482 FILLER_0_27_349
*1483 FILLER_0_27_79
*1484 FILLER_0_27_83
*1485 FILLER_0_27_9
*1486 FILLER_0_27_90
*1487 FILLER_0_28_103
*1488 FILLER_0_28_107
*1489 FILLER_0_28_115
*1490 FILLER_0_28_127
*1491 FILLER_0_28_139
*1492 FILLER_0_28_15
*1493 FILLER_0_28_152
*1494 FILLER_0_28_164
*1495 FILLER_0_28_176
*1496 FILLER_0_28_193
*1497 FILLER_0_28_201
*1498 FILLER_0_28_213
*1499 FILLER_0_28_225
*1500 FILLER_0_28_251
*1501 FILLER_0_28_27
*1502 FILLER_0_28_270
*1503 FILLER_0_28_278
*1504 FILLER_0_28_29
*1505 FILLER_0_28_295
*1506 FILLER_0_28_3
*1507 FILLER_0_28_300
*1508 FILLER_0_28_309
*1509 FILLER_0_28_321
*1510 FILLER_0_28_329
*1511 FILLER_0_28_346
*1512 FILLER_0_28_350
*1513 FILLER_0_28_65
*1514 FILLER_0_29_108
*1515 FILLER_0_29_11
*1516 FILLER_0_29_113
*1517 FILLER_0_29_157
*1518 FILLER_0_29_163
*1519 FILLER_0_29_167
*1520 FILLER_0_29_169
*1521 FILLER_0_29_177
*1522 FILLER_0_29_190
*1523 FILLER_0_29_202
*1524 FILLER_0_29_225
*1525 FILLER_0_29_259
*1526 FILLER_0_29_271
*1527 FILLER_0_29_279
*1528 FILLER_0_29_28
*1529 FILLER_0_29_286
*1530 FILLER_0_29_298
*1531 FILLER_0_29_3
*1532 FILLER_0_29_310
*1533 FILLER_0_29_318
*1534 FILLER_0_29_340
*1535 FILLER_0_29_348
*1536 FILLER_0_29_57
*1537 FILLER_0_29_67
*1538 FILLER_0_29_97
*1539 FILLER_0_2_109
*1540 FILLER_0_2_121
*1541 FILLER_0_2_133
*1542 FILLER_0_2_139
*1543 FILLER_0_2_141
*1544 FILLER_0_2_15
*1545 FILLER_0_2_153
*1546 FILLER_0_2_165
*1547 FILLER_0_2_177
*1548 FILLER_0_2_189
*1549 FILLER_0_2_195
*1550 FILLER_0_2_197
*1551 FILLER_0_2_201
*1552 FILLER_0_2_226
*1553 FILLER_0_2_240
*1554 FILLER_0_2_253
*1555 FILLER_0_2_265
*1556 FILLER_0_2_27
*1557 FILLER_0_2_288
*1558 FILLER_0_2_29
*1559 FILLER_0_2_3
*1560 FILLER_0_2_303
*1561 FILLER_0_2_307
*1562 FILLER_0_2_309
*1563 FILLER_0_2_321
*1564 FILLER_0_2_325
*1565 FILLER_0_2_342
*1566 FILLER_0_2_350
*1567 FILLER_0_2_41
*1568 FILLER_0_2_53
*1569 FILLER_0_2_65
*1570 FILLER_0_2_77
*1571 FILLER_0_2_83
*1572 FILLER_0_2_85
*1573 FILLER_0_2_97
*1574 FILLER_0_30_109
*1575 FILLER_0_30_121
*1576 FILLER_0_30_141
*1577 FILLER_0_30_145
*1578 FILLER_0_30_168
*1579 FILLER_0_30_188
*1580 FILLER_0_30_203
*1581 FILLER_0_30_210
*1582 FILLER_0_30_237
*1583 FILLER_0_30_244
*1584 FILLER_0_30_250
*1585 FILLER_0_30_261
*1586 FILLER_0_30_27
*1587 FILLER_0_30_273
*1588 FILLER_0_30_282
*1589 FILLER_0_30_3
*1590 FILLER_0_30_302
*1591 FILLER_0_30_330
*1592 FILLER_0_30_343
*1593 FILLER_0_30_35
*1594 FILLER_0_30_43
*1595 FILLER_0_30_47
*1596 FILLER_0_30_59
*1597 FILLER_0_30_75
*1598 FILLER_0_31_103
*1599 FILLER_0_31_111
*1600 FILLER_0_31_113
*1601 FILLER_0_31_119
*1602 FILLER_0_31_125
*1603 FILLER_0_31_140
*1604 FILLER_0_31_163
*1605 FILLER_0_31_167
*1606 FILLER_0_31_169
*1607 FILLER_0_31_186
*1608 FILLER_0_31_198
*1609 FILLER_0_31_243
*1610 FILLER_0_31_248
*1611 FILLER_0_31_272
*1612 FILLER_0_31_3
*1613 FILLER_0_31_305
*1614 FILLER_0_31_328
*1615 FILLER_0_31_34
*1616 FILLER_0_31_348
*1617 FILLER_0_31_46
*1618 FILLER_0_31_54
*1619 FILLER_0_31_57
*1620 FILLER_0_31_81
*1621 FILLER_0_31_87
*1622 FILLER_0_31_91
*1623 FILLER_0_32_105
*1624 FILLER_0_32_120
*1625 FILLER_0_32_139
*1626 FILLER_0_32_141
*1627 FILLER_0_32_153
*1628 FILLER_0_32_165
*1629 FILLER_0_32_184
*1630 FILLER_0_32_197
*1631 FILLER_0_32_203
*1632 FILLER_0_32_207
*1633 FILLER_0_32_219
*1634 FILLER_0_32_245
*1635 FILLER_0_32_250
*1636 FILLER_0_32_253
*1637 FILLER_0_32_265
*1638 FILLER_0_32_27
*1639 FILLER_0_32_29
*1640 FILLER_0_32_3