*SPEF "ieee 1481-1999"
*DESIGN "tt_um_led_multiplexer_display"
*DATE "11:11:11 Fri 11 11, 1111"
*VENDOR "OpenRCX"
*PROGRAM "Parallel Extraction"
*VERSION "1.0"
*DESIGN_FLOW "NAME_SCOPE LOCAL" "PIN_CAP NONE"
*DIVIDER /
*DELIMITER :
*BUS_DELIMITER []
*T_UNIT 1 NS
*C_UNIT 1 PF
*R_UNIT 1 OHM
*L_UNIT 1 HENRY

*NAME_MAP
*3 clk
*4 ena
*5 rst_n
*6 ui_in[0]
*7 ui_in[1]
*8 ui_in[2]
*9 ui_in[3]
*10 ui_in[4]
*11 ui_in[5]
*12 ui_in[6]
*13 ui_in[7]
*14 uio_in[0]
*15 uio_in[1]
*16 uio_in[2]
*17 uio_in[3]
*18 uio_in[4]
*19 uio_in[5]
*20 uio_in[6]
*21 uio_in[7]
*22 net9
*23 net10
*24 net11
*25 net12
*26 net13
*27 net14
*28 net15
*29 net16
*30 net17
*31 net18
*32 net19
*33 net20
*34 net21
*35 net22
*36 net23
*37 net24
*38 uo_out[0]
*39 uo_out[1]
*40 uo_out[2]
*41 uo_out[3]
*42 uo_out[4]
*43 uo_out[5]
*44 uo_out[6]
*45 uo_out[7]
*46 _000_
*47 _001_
*48 _002_
*49 _003_
*50 _004_
*51 _005_
*52 _006_
*53 _007_
*54 _008_
*55 _009_
*56 _010_
*57 _011_
*58 _012_
*59 _013_
*60 _014_
*61 _015_
*62 _016_
*63 _017_
*64 _018_
*65 _019_
*66 _020_
*67 _021_
*68 _022_
*69 _023_
*70 _024_
*71 _025_
*72 _026_
*73 _027_
*74 _028_
*75 _029_
*76 _030_
*77 _031_
*78 _032_
*79 _033_
*80 _034_
*81 _035_
*82 _036_
*83 _037_
*84 _038_
*85 _039_
*86 _040_
*87 _041_
*88 _042_
*89 _043_
*90 _044_
*91 _045_
*92 _046_
*93 _047_
*94 _048_
*95 _049_
*96 _050_
*97 _051_
*98 _052_
*99 _053_
*100 _054_
*101 _055_
*102 _056_
*103 _057_
*104 _058_
*105 _059_
*106 _060_
*107 _061_
*108 _062_
*109 _063_
*110 _064_
*111 _065_
*112 _066_
*113 _067_
*114 _068_
*115 _069_
*116 _070_
*117 _071_
*118 _072_
*119 _073_
*120 _074_
*121 _075_
*122 _076_
*123 _077_
*124 _078_
*125 _079_
*126 _080_
*127 _081_
*128 _082_
*129 _083_
*130 _084_
*131 _085_
*132 _086_
*133 _087_
*134 _088_
*135 _089_
*136 _090_
*137 _091_
*138 _092_
*139 _093_
*140 _094_
*141 _095_
*142 _096_
*143 _097_
*144 _098_
*145 _099_
*146 _100_
*147 _101_
*148 _102_
*149 _103_
*150 _104_
*151 _105_
*152 _106_
*153 _107_
*154 _108_
*155 _109_
*156 _110_
*157 _111_
*158 _112_
*159 _113_
*160 _114_
*161 _115_
*162 _116_
*163 _117_
*164 _118_
*165 _119_
*166 _120_
*167 _121_
*168 char_multiplexer_display\.chars_to_display\[0\]\[0\]
*169 char_multiplexer_display\.chars_to_display\[0\]\[1\]
*170 char_multiplexer_display\.chars_to_display\[0\]\[2\]
*171 char_multiplexer_display\.chars_to_display\[0\]\[3\]
*172 char_multiplexer_display\.chars_to_display\[1\]\[0\]
*173 char_multiplexer_display\.chars_to_display\[1\]\[1\]
*174 char_multiplexer_display\.chars_to_display\[1\]\[2\]
*175 char_multiplexer_display\.chars_to_display\[1\]\[3\]
*176 char_multiplexer_display\.chars_to_display\[2\]\[0\]
*177 char_multiplexer_display\.chars_to_display\[2\]\[1\]
*178 char_multiplexer_display\.chars_to_display\[2\]\[2\]
*179 char_multiplexer_display\.chars_to_display\[2\]\[3\]
*180 char_multiplexer_display\.chars_to_display\[3\]\[0\]
*181 char_multiplexer_display\.chars_to_display\[3\]\[1\]
*182 char_multiplexer_display\.chars_to_display\[3\]\[2\]
*183 char_multiplexer_display\.chars_to_display\[3\]\[3\]
*184 char_multiplexer_display\.current_character\[0\]
*185 char_multiplexer_display\.current_character\[1\]
*186 char_multiplexer_display\.current_character_column\[0\]
*187 char_multiplexer_display\.current_character_column\[1\]
*188 clknet_0_clk
*189 clknet_2_0__leaf_clk
*190 clknet_2_1__leaf_clk
*191 clknet_2_2__leaf_clk
*192 clknet_2_3__leaf_clk
*193 net1
*194 net2
*195 net25
*196 net26
*197 net27
*198 net28
*199 net29
*200 net3
*201 net30
*202 net31
*203 net32
*204 net33
*205 net34
*206 net35
*207 net36
*208 net37
*209 net38
*210 net39
*211 net4
*212 net40
*213 net41
*214 net42
*215 net43
*216 net44
*217 net5
*218 net6
*219 net7
*220 net8
*221 FILLER_0_0_109
*222 FILLER_0_0_113
*223 FILLER_0_0_125
*224 FILLER_0_0_137
*225 FILLER_0_0_141
*226 FILLER_0_0_15
*227 FILLER_0_0_153
*228 FILLER_0_0_165
*229 FILLER_0_0_169
*230 FILLER_0_0_181
*231 FILLER_0_0_193
*232 FILLER_0_0_197
*233 FILLER_0_0_209
*234 FILLER_0_0_221
*235 FILLER_0_0_225
*236 FILLER_0_0_237
*237 FILLER_0_0_249
*238 FILLER_0_0_253
*239 FILLER_0_0_265
*240 FILLER_0_0_27
*241 FILLER_0_0_277
*242 FILLER_0_0_281
*243 FILLER_0_0_29
*244 FILLER_0_0_293
*245 FILLER_0_0_3
*246 FILLER_0_0_305
*247 FILLER_0_0_309
*248 FILLER_0_0_321
*249 FILLER_0_0_333
*250 FILLER_0_0_337
*251 FILLER_0_0_349
*252 FILLER_0_0_41
*253 FILLER_0_0_53
*254 FILLER_0_0_57
*255 FILLER_0_0_69
*256 FILLER_0_0_81
*257 FILLER_0_0_85
*258 FILLER_0_0_97
*259 FILLER_0_10_109
*260 FILLER_0_10_121
*261 FILLER_0_10_133
*262 FILLER_0_10_139
*263 FILLER_0_10_141
*264 FILLER_0_10_15
*265 FILLER_0_10_153
*266 FILLER_0_10_165
*267 FILLER_0_10_177
*268 FILLER_0_10_189
*269 FILLER_0_10_195
*270 FILLER_0_10_197
*271 FILLER_0_10_209
*272 FILLER_0_10_221
*273 FILLER_0_10_233
*274 FILLER_0_10_245
*275 FILLER_0_10_251
*276 FILLER_0_10_253
*277 FILLER_0_10_265
*278 FILLER_0_10_27
*279 FILLER_0_10_277
*280 FILLER_0_10_289
*281 FILLER_0_10_29
*282 FILLER_0_10_3
*283 FILLER_0_10_301
*284 FILLER_0_10_307
*285 FILLER_0_10_309
*286 FILLER_0_10_321
*287 FILLER_0_10_333
*288 FILLER_0_10_345
*289 FILLER_0_10_41
*290 FILLER_0_10_53
*291 FILLER_0_10_65
*292 FILLER_0_10_77
*293 FILLER_0_10_83
*294 FILLER_0_10_85
*295 FILLER_0_10_97
*296 FILLER_0_11_105
*297 FILLER_0_11_111
*298 FILLER_0_11_113
*299 FILLER_0_11_125
*300 FILLER_0_11_137
*301 FILLER_0_11_149
*302 FILLER_0_11_15
*303 FILLER_0_11_161
*304 FILLER_0_11_167
*305 FILLER_0_11_169
*306 FILLER_0_11_181
*307 FILLER_0_11_193
*308 FILLER_0_11_205
*309 FILLER_0_11_217
*310 FILLER_0_11_223
*311 FILLER_0_11_225
*312 FILLER_0_11_237
*313 FILLER_0_11_249
*314 FILLER_0_11_261
*315 FILLER_0_11_27
*316 FILLER_0_11_273
*317 FILLER_0_11_279
*318 FILLER_0_11_281
*319 FILLER_0_11_293
*320 FILLER_0_11_3
*321 FILLER_0_11_305
*322 FILLER_0_11_317
*323 FILLER_0_11_329
*324 FILLER_0_11_335
*325 FILLER_0_11_337
*326 FILLER_0_11_349
*327 FILLER_0_11_39
*328 FILLER_0_11_51
*329 FILLER_0_11_55
*330 FILLER_0_11_57
*331 FILLER_0_11_69
*332 FILLER_0_11_81
*333 FILLER_0_11_93
*334 FILLER_0_12_109
*335 FILLER_0_12_121
*336 FILLER_0_12_133
*337 FILLER_0_12_139
*338 FILLER_0_12_141
*339 FILLER_0_12_15
*340 FILLER_0_12_153
*341 FILLER_0_12_165
*342 FILLER_0_12_177
*343 FILLER_0_12_189
*344 FILLER_0_12_195
*345 FILLER_0_12_197
*346 FILLER_0_12_209
*347 FILLER_0_12_221
*348 FILLER_0_12_233
*349 FILLER_0_12_245
*350 FILLER_0_12_251
*351 FILLER_0_12_253
*352 FILLER_0_12_265
*353 FILLER_0_12_27
*354 FILLER_0_12_277
*355 FILLER_0_12_289
*356 FILLER_0_12_29
*357 FILLER_0_12_3
*358 FILLER_0_12_301
*359 FILLER_0_12_307
*360 FILLER_0_12_309
*361 FILLER_0_12_321
*362 FILLER_0_12_333
*363 FILLER_0_12_345
*364 FILLER_0_12_41
*365 FILLER_0_12_53
*366 FILLER_0_12_65
*367 FILLER_0_12_77
*368 FILLER_0_12_83
*369 FILLER_0_12_85
*370 FILLER_0_12_97
*371 FILLER_0_13_105
*372 FILLER_0_13_111
*373 FILLER_0_13_113
*374 FILLER_0_13_125
*375 FILLER_0_13_137
*376 FILLER_0_13_149
*377 FILLER_0_13_15
*378 FILLER_0_13_161
*379 FILLER_0_13_167
*380 FILLER_0_13_169
*381 FILLER_0_13_181
*382 FILLER_0_13_193
*383 FILLER_0_13_205
*384 FILLER_0_13_217
*385 FILLER_0_13_223
*386 FILLER_0_13_225
*387 FILLER_0_13_237
*388 FILLER_0_13_249
*389 FILLER_0_13_261
*390 FILLER_0_13_27
*391 FILLER_0_13_273
*392 FILLER_0_13_279
*393 FILLER_0_13_281
*394 FILLER_0_13_293
*395 FILLER_0_13_3
*396 FILLER_0_13_305
*397 FILLER_0_13_317
*398 FILLER_0_13_329
*399 FILLER_0_13_335
*400 FILLER_0_13_337
*401 FILLER_0_13_349
*402 FILLER_0_13_39
*403 FILLER_0_13_51
*404 FILLER_0_13_55
*405 FILLER_0_13_57
*406 FILLER_0_13_69
*407 FILLER_0_13_81
*408 FILLER_0_13_93
*409 FILLER_0_14_109
*410 FILLER_0_14_121
*411 FILLER_0_14_133
*412 FILLER_0_14_139
*413 FILLER_0_14_141
*414 FILLER_0_14_15
*415 FILLER_0_14_153
*416 FILLER_0_14_165
*417 FILLER_0_14_177
*418 FILLER_0_14_189
*419 FILLER_0_14_195
*420 FILLER_0_14_197
*421 FILLER_0_14_209
*422 FILLER_0_14_221
*423 FILLER_0_14_233
*424 FILLER_0_14_245
*425 FILLER_0_14_251
*426 FILLER_0_14_253
*427 FILLER_0_14_265
*428 FILLER_0_14_27
*429 FILLER_0_14_277
*430 FILLER_0_14_289
*431 FILLER_0_14_29
*432 FILLER_0_14_3
*433 FILLER_0_14_301
*434 FILLER_0_14_307
*435 FILLER_0_14_309
*436 FILLER_0_14_321
*437 FILLER_0_14_333
*438 FILLER_0_14_345
*439 FILLER_0_14_41
*440 FILLER_0_14_53
*441 FILLER_0_14_65
*442 FILLER_0_14_77
*443 FILLER_0_14_83
*444 FILLER_0_14_85
*445 FILLER_0_14_97
*446 FILLER_0_15_105
*447 FILLER_0_15_111
*448 FILLER_0_15_113
*449 FILLER_0_15_125
*450 FILLER_0_15_137
*451 FILLER_0_15_149
*452 FILLER_0_15_15
*453 FILLER_0_15_161
*454 FILLER_0_15_167
*455 FILLER_0_15_169
*456 FILLER_0_15_181
*457 FILLER_0_15_193
*458 FILLER_0_15_205
*459 FILLER_0_15_217
*460 FILLER_0_15_223
*461 FILLER_0_15_225
*462 FILLER_0_15_237
*463 FILLER_0_15_249
*464 FILLER_0_15_261
*465 FILLER_0_15_27
*466 FILLER_0_15_273
*467 FILLER_0_15_279
*468 FILLER_0_15_281
*469 FILLER_0_15_293
*470 FILLER_0_15_3
*471 FILLER_0_15_305
*472 FILLER_0_15_317
*473 FILLER_0_15_329
*474 FILLER_0_15_335
*475 FILLER_0_15_337
*476 FILLER_0_15_349
*477 FILLER_0_15_39
*478 FILLER_0_15_51
*479 FILLER_0_15_55
*480 FILLER_0_15_57
*481 FILLER_0_15_69
*482 FILLER_0_15_81
*483 FILLER_0_15_93
*484 FILLER_0_16_109
*485 FILLER_0_16_121
*486 FILLER_0_16_133
*487 FILLER_0_16_139
*488 FILLER_0_16_141
*489 FILLER_0_16_15
*490 FILLER_0_16_153
*491 FILLER_0_16_165
*492 FILLER_0_16_177
*493 FILLER_0_16_189
*494 FILLER_0_16_195
*495 FILLER_0_16_197
*496 FILLER_0_16_209
*497 FILLER_0_16_221
*498 FILLER_0_16_233
*499 FILLER_0_16_245
*500 FILLER_0_16_251
*501 FILLER_0_16_253
*502 FILLER_0_16_265
*503 FILLER_0_16_27
*504 FILLER_0_16_277
*505 FILLER_0_16_289
*506 FILLER_0_16_29
*507 FILLER_0_16_3
*508 FILLER_0_16_301
*509 FILLER_0_16_307
*510 FILLER_0_16_309
*511 FILLER_0_16_321
*512 FILLER_0_16_333
*513 FILLER_0_16_345
*514 FILLER_0_16_41
*515 FILLER_0_16_53
*516 FILLER_0_16_65
*517 FILLER_0_16_77
*518 FILLER_0_16_83
*519 FILLER_0_16_85
*520 FILLER_0_16_97
*521 FILLER_0_17_105
*522 FILLER_0_17_111
*523 FILLER_0_17_113
*524 FILLER_0_17_125
*525 FILLER_0_17_137
*526 FILLER_0_17_149
*527 FILLER_0_17_15
*528 FILLER_0_17_161
*529 FILLER_0_17_167
*530 FILLER_0_17_169
*531 FILLER_0_17_181
*532 FILLER_0_17_193
*533 FILLER_0_17_205
*534 FILLER_0_17_217
*535 FILLER_0_17_223
*536 FILLER_0_17_225
*537 FILLER_0_17_237
*538 FILLER_0_17_249
*539 FILLER_0_17_261
*540 FILLER_0_17_27
*541 FILLER_0_17_273
*542 FILLER_0_17_279
*543 FILLER_0_17_281
*544 FILLER_0_17_293
*545 FILLER_0_17_3
*546 FILLER_0_17_305
*547 FILLER_0_17_317
*548 FILLER_0_17_329
*549 FILLER_0_17_335
*550 FILLER_0_17_337
*551 FILLER_0_17_349
*552 FILLER_0_17_39
*553 FILLER_0_17_51
*554 FILLER_0_17_55
*555 FILLER_0_17_57
*556 FILLER_0_17_69
*557 FILLER_0_17_81
*558 FILLER_0_17_93
*559 FILLER_0_18_109
*560 FILLER_0_18_121
*561 FILLER_0_18_133
*562 FILLER_0_18_139
*563 FILLER_0_18_141
*564 FILLER_0_18_15
*565 FILLER_0_18_153
*566 FILLER_0_18_165
*567 FILLER_0_18_177
*568 FILLER_0_18_189
*569 FILLER_0_18_195
*570 FILLER_0_18_197
*571 FILLER_0_18_209
*572 FILLER_0_18_221
*573 FILLER_0_18_233
*574 FILLER_0_18_245
*575 FILLER_0_18_251
*576 FILLER_0_18_253
*577 FILLER_0_18_265
*578 FILLER_0_18_27
*579 FILLER_0_18_277
*580 FILLER_0_18_289
*581 FILLER_0_18_29
*582 FILLER_0_18_3
*583 FILLER_0_18_301
*584 FILLER_0_18_307
*585 FILLER_0_18_309
*586 FILLER_0_18_321
*587 FILLER_0_18_333
*588 FILLER_0_18_345
*589 FILLER_0_18_41
*590 FILLER_0_18_53
*591 FILLER_0_18_65
*592 FILLER_0_18_77
*593 FILLER_0_18_83
*594 FILLER_0_18_85
*595 FILLER_0_18_97
*596 FILLER_0_19_105
*597 FILLER_0_19_111
*598 FILLER_0_19_113
*599 FILLER_0_19_125
*600 FILLER_0_19_137
*601 FILLER_0_19_149
*602 FILLER_0_19_15
*603 FILLER_0_19_161
*604 FILLER_0_19_167
*605 FILLER_0_19_169
*606 FILLER_0_19_181
*607 FILLER_0_19_193
*608 FILLER_0_19_205
*609 FILLER_0_19_217
*610 FILLER_0_19_223
*611 FILLER_0_19_225
*612 FILLER_0_19_237
*613 FILLER_0_19_249
*614 FILLER_0_19_261
*615 FILLER_0_19_27
*616 FILLER_0_19_273
*617 FILLER_0_19_279
*618 FILLER_0_19_281
*619 FILLER_0_19_293
*620 FILLER_0_19_3
*621 FILLER_0_19_305
*622 FILLER_0_19_317
*623 FILLER_0_19_329
*624 FILLER_0_19_335
*625 FILLER_0_19_337
*626 FILLER_0_19_349
*627 FILLER_0_19_39
*628 FILLER_0_19_51
*629 FILLER_0_19_55
*630 FILLER_0_19_57
*631 FILLER_0_19_69
*632 FILLER_0_19_81
*633 FILLER_0_19_93
*634 FILLER_0_1_105
*635 FILLER_0_1_111
*636 FILLER_0_1_113
*637 FILLER_0_1_125
*638 FILLER_0_1_137
*639 FILLER_0_1_149
*640 FILLER_0_1_15
*641 FILLER_0_1_161
*642 FILLER_0_1_167
*643 FILLER_0_1_169
*644 FILLER_0_1_181
*645 FILLER_0_1_193
*646 FILLER_0_1_205
*647 FILLER_0_1_217
*648 FILLER_0_1_223
*649 FILLER_0_1_225
*650 FILLER_0_1_237
*651 FILLER_0_1_249
*652 FILLER_0_1_261
*653 FILLER_0_1_27
*654 FILLER_0_1_273
*655 FILLER_0_1_279
*656 FILLER_0_1_281
*657 FILLER_0_1_293
*658 FILLER_0_1_3
*659 FILLER_0_1_305
*660 FILLER_0_1_317
*661 FILLER_0_1_329
*662 FILLER_0_1_335
*663 FILLER_0_1_337
*664 FILLER_0_1_349
*665 FILLER_0_1_39
*666 FILLER_0_1_51
*667 FILLER_0_1_55
*668 FILLER_0_1_57
*669 FILLER_0_1_69
*670 FILLER_0_1_81
*671 FILLER_0_1_93
*672 FILLER_0_20_109
*673 FILLER_0_20_121
*674 FILLER_0_20_133
*675 FILLER_0_20_139
*676 FILLER_0_20_141
*677 FILLER_0_20_15
*678 FILLER_0_20_153
*679 FILLER_0_20_165
*680 FILLER_0_20_177
*681 FILLER_0_20_189
*682 FILLER_0_20_195
*683 FILLER_0_20_197
*684 FILLER_0_20_209
*685 FILLER_0_20_221
*686 FILLER_0_20_233
*687 FILLER_0_20_245
*688 FILLER_0_20_251
*689 FILLER_0_20_253
*690 FILLER_0_20_265
*691 FILLER_0_20_27
*692 FILLER_0_20_277
*693 FILLER_0_20_289
*694 FILLER_0_20_29
*695 FILLER_0_20_3
*696 FILLER_0_20_301
*697 FILLER_0_20_307
*698 FILLER_0_20_309
*699 FILLER_0_20_321
*700 FILLER_0_20_333
*701 FILLER_0_20_345
*702 FILLER_0_20_41
*703 FILLER_0_20_53
*704 FILLER_0_20_65
*705 FILLER_0_20_77
*706 FILLER_0_20_83
*707 FILLER_0_20_85
*708 FILLER_0_20_97
*709 FILLER_0_21_105
*710 FILLER_0_21_111
*711 FILLER_0_21_113
*712 FILLER_0_21_125
*713 FILLER_0_21_137
*714 FILLER_0_21_149
*715 FILLER_0_21_15
*716 FILLER_0_21_161
*717 FILLER_0_21_167
*718 FILLER_0_21_169
*719 FILLER_0_21_181
*720 FILLER_0_21_193
*721 FILLER_0_21_205
*722 FILLER_0_21_217
*723 FILLER_0_21_223
*724 FILLER_0_21_225
*725 FILLER_0_21_237
*726 FILLER_0_21_249
*727 FILLER_0_21_261
*728 FILLER_0_21_27
*729 FILLER_0_21_273
*730 FILLER_0_21_279
*731 FILLER_0_21_281
*732 FILLER_0_21_293
*733 FILLER_0_21_3
*734 FILLER_0_21_305
*735 FILLER_0_21_317
*736 FILLER_0_21_329
*737 FILLER_0_21_335
*738 FILLER_0_21_337
*739 FILLER_0_21_349
*740 FILLER_0_21_39
*741 FILLER_0_21_51
*742 FILLER_0_21_55
*743 FILLER_0_21_57
*744 FILLER_0_21_69
*745 FILLER_0_21_81
*746 FILLER_0_21_93
*747 FILLER_0_22_109
*748 FILLER_0_22_121
*749 FILLER_0_22_133
*750 FILLER_0_22_139
*751 FILLER_0_22_141
*752 FILLER_0_22_15
*753 FILLER_0_22_153
*754 FILLER_0_22_165
*755 FILLER_0_22_177
*756 FILLER_0_22_189
*757 FILLER_0_22_195
*758 FILLER_0_22_197
*759 FILLER_0_22_209
*760 FILLER_0_22_221
*761 FILLER_0_22_233
*762 FILLER_0_22_245
*763 FILLER_0_22_251
*764 FILLER_0_22_253
*765 FILLER_0_22_265
*766 FILLER_0_22_27
*767 FILLER_0_22_277
*768 FILLER_0_22_289
*769 FILLER_0_22_29
*770 FILLER_0_22_3
*771 FILLER_0_22_301
*772 FILLER_0_22_307
*773 FILLER_0_22_309
*774 FILLER_0_22_321
*775 FILLER_0_22_333
*776 FILLER_0_22_345
*777 FILLER_0_22_41
*778 FILLER_0_22_53
*779 FILLER_0_22_65
*780 FILLER_0_22_77
*781 FILLER_0_22_83
*782 FILLER_0_22_85
*783 FILLER_0_22_97
*784 FILLER_0_23_105
*785 FILLER_0_23_111
*786 FILLER_0_23_113
*787 FILLER_0_23_125
*788 FILLER_0_23_137
*789 FILLER_0_23_149
*790 FILLER_0_23_15
*791 FILLER_0_23_161
*792 FILLER_0_23_167
*793 FILLER_0_23_169
*794 FILLER_0_23_181
*795 FILLER_0_23_193
*796 FILLER_0_23_205
*797 FILLER_0_23_217
*798 FILLER_0_23_223
*799 FILLER_0_23_225
*800 FILLER_0_23_237
*801 FILLER_0_23_249
*802 FILLER_0_23_261
*803 FILLER_0_23_27
*804 FILLER_0_23_273
*805 FILLER_0_23_279
*806 FILLER_0_23_281
*807 FILLER_0_23_293
*808 FILLER_0_23_3
*809 FILLER_0_23_305
*810 FILLER_0_23_317
*811 FILLER_0_23_329
*812 FILLER_0_23_335
*813 FILLER_0_23_337
*814 FILLER_0_23_349
*815 FILLER_0_23_39
*816 FILLER_0_23_51
*817 FILLER_0_23_55
*818 FILLER_0_23_57
*819 FILLER_0_23_69
*820 FILLER_0_23_81
*821 FILLER_0_23_93
*822 FILLER_0_24_109
*823 FILLER_0_24_121
*824 FILLER_0_24_133
*825 FILLER_0_24_139
*826 FILLER_0_24_141
*827 FILLER_0_24_15
*828 FILLER_0_24_153
*829 FILLER_0_24_165
*830 FILLER_0_24_177
*831 FILLER_0_24_189
*832 FILLER_0_24_195
*833 FILLER_0_24_197
*834 FILLER_0_24_209
*835 FILLER_0_24_221
*836 FILLER_0_24_233
*837 FILLER_0_24_245
*838 FILLER_0_24_251
*839 FILLER_0_24_253
*840 FILLER_0_24_265
*841 FILLER_0_24_27
*842 FILLER_0_24_277
*843 FILLER_0_24_289
*844 FILLER_0_24_29
*845 FILLER_0_24_3
*846 FILLER_0_24_301
*847 FILLER_0_24_307
*848 FILLER_0_24_309
*849 FILLER_0_24_321
*850 FILLER_0_24_333
*851 FILLER_0_24_345
*852 FILLER_0_24_41
*853 FILLER_0_24_53
*854 FILLER_0_24_65
*855 FILLER_0_24_77
*856 FILLER_0_24_83
*857 FILLER_0_24_85
*858 FILLER_0_24_97
*859 FILLER_0_25_105
*860 FILLER_0_25_111
*861 FILLER_0_25_113
*862 FILLER_0_25_125
*863 FILLER_0_25_137
*864 FILLER_0_25_149
*865 FILLER_0_25_15
*866 FILLER_0_25_161
*867 FILLER_0_25_167
*868 FILLER_0_25_169
*869 FILLER_0_25_181
*870 FILLER_0_25_193
*871 FILLER_0_25_205
*872 FILLER_0_25_217
*873 FILLER_0_25_223
*874 FILLER_0_25_225
*875 FILLER_0_25_237
*876 FILLER_0_25_249
*877 FILLER_0_25_261
*878 FILLER_0_25_27
*879 FILLER_0_25_273
*880 FILLER_0_25_279
*881 FILLER_0_25_281
*882 FILLER_0_25_293
*883 FILLER_0_25_3
*884 FILLER_0_25_305
*885 FILLER_0_25_317
*886 FILLER_0_25_329
*887 FILLER_0_25_335
*888 FILLER_0_25_337
*889 FILLER_0_25_349
*890 FILLER_0_25_39
*891 FILLER_0_25_51
*892 FILLER_0_25_55
*893 FILLER_0_25_57
*894 FILLER_0_25_69
*895 FILLER_0_25_81
*896 FILLER_0_25_93
*897 FILLER_0_26_109
*898 FILLER_0_26_121
*899 FILLER_0_26_133
*900 FILLER_0_26_139
*901 FILLER_0_26_141
*902 FILLER_0_26_15
*903 FILLER_0_26_153
*904 FILLER_0_26_165
*905 FILLER_0_26_177
*906 FILLER_0_26_189
*907 FILLER_0_26_195
*908 FILLER_0_26_197
*909 FILLER_0_26_209
*910 FILLER_0_26_221
*911 FILLER_0_26_233
*912 FILLER_0_26_245
*913 FILLER_0_26_251
*914 FILLER_0_26_253
*915 FILLER_0_26_265
*916 FILLER_0_26_27
*917 FILLER_0_26_277
*918 FILLER_0_26_289
*919 FILLER_0_26_29
*920 FILLER_0_26_3
*921 FILLER_0_26_301
*922 FILLER_0_26_307
*923 FILLER_0_26_309
*924 FILLER_0_26_321
*925 FILLER_0_26_333
*926 FILLER_0_26_345
*927 FILLER_0_26_41
*928 FILLER_0_26_53
*929 FILLER_0_26_65
*930 FILLER_0_26_77
*931 FILLER_0_26_83
*932 FILLER_0_26_85
*933 FILLER_0_26_97
*934 FILLER_0_27_105
*935 FILLER_0_27_111
*936 FILLER_0_27_113
*937 FILLER_0_27_125
*938 FILLER_0_27_137
*939 FILLER_0_27_149
*940 FILLER_0_27_15
*941 FILLER_0_27_161
*942 FILLER_0_27_167
*943 FILLER_0_27_169
*944 FILLER_0_27_181
*945 FILLER_0_27_193
*946 FILLER_0_27_205
*947 FILLER_0_27_217
*948 FILLER_0_27_223
*949 FILLER_0_27_225
*950 FILLER_0_27_237
*951 FILLER_0_27_249
*952 FILLER_0_27_261
*953 FILLER_0_27_27
*954 FILLER_0_27_273
*955 FILLER_0_27_279
*956 FILLER_0_27_281
*957 FILLER_0_27_293
*958 FILLER_0_27_3
*959 FILLER_0_27_305
*960 FILLER_0_27_317
*961 FILLER_0_27_329
*962 FILLER_0_27_335
*963 FILLER_0_27_337
*964 FILLER_0_27_349
*965 FILLER_0_27_39
*966 FILLER_0_27_51
*967 FILLER_0_27_55
*968 FILLER_0_27_57
*969 FILLER_0_27_69
*970 FILLER_0_27_81
*971 FILLER_0_27_93
*972 FILLER_0_28_109
*973 FILLER_0_28_121
*974 FILLER_0_28_133
*975 FILLER_0_28_139
*976 FILLER_0_28_141
*977 FILLER_0_28_15
*978 FILLER_0_28_153
*979 FILLER_0_28_165
*980 FILLER_0_28_177
*981 FILLER_0_28_189
*982 FILLER_0_28_195
*983 FILLER_0_28_197
*984 FILLER_0_28_209
*985 FILLER_0_28_221
*986 FILLER_0_28_233
*987 FILLER_0_28_245
*988 FILLER_0_28_251
*989 FILLER_0_28_253
*990 FILLER_0_28_265
*991 FILLER_0_28_27
*992 FILLER_0_28_29
*993 FILLER_0_28_297
*994 FILLER_0_28_3
*995 FILLER_0_28_305
*996 FILLER_0_28_309
*997 FILLER_0_28_321
*998 FILLER_0_28_333
*999 FILLER_0_28_345
*1000 FILLER_0_28_41
*1001 FILLER_0_28_53
*1002 FILLER_0_28_65
*1003 FILLER_0_28_77
*1004 FILLER_0_28_83
*1005 FILLER_0_28_85
*1006 FILLER_0_28_97
*1007 FILLER_0_29_105
*1008 FILLER_0_29_111
*1009 FILLER_0_29_113
*1010 FILLER_0_29_125
*1011 FILLER_0_29_137
*1012 FILLER_0_29_149
*1013 FILLER_0_29_15
*1014 FILLER_0_29_167
*1015 FILLER_0_29_174
*1016 FILLER_0_29_186
*1017 FILLER_0_29_198
*1018 FILLER_0_29_216
*1019 FILLER_0_29_225
*1020 FILLER_0_29_237
*1021 FILLER_0_29_249
*1022 FILLER_0_29_261
*1023 FILLER_0_29_27
*1024 FILLER_0_29_273
*1025 FILLER_0_29_279
*1026 FILLER_0_29_297
*1027 FILLER_0_29_3
*1028 FILLER_0_29_309
*1029 FILLER_0_29_321
*1030 FILLER_0_29_332
*1031 FILLER_0_29_337
*1032 FILLER_0_29_341
*1033 FILLER_0_29_350
*1034 FILLER_0_29_39
*1035 FILLER_0_29_51
*1036 FILLER_0_29_55
*1037 FILLER_0_29_57
*1038 FILLER_0_29_69
*1039 FILLER_0_29_81
*1040 FILLER_0_29_93
*1041 FILLER_0_2_109
*1042 FILLER_0_2_121
*1043 FILLER_0_2_133
*1044 FILLER_0_2_139
*1045 FILLER_0_2_141
*1046 FILLER_0_2_15
*1047 FILLER_0_2_153
*1048 FILLER_0_2_165
*1049 FILLER_0_2_177
*1050 FILLER_0_2_189
*1051 FILLER_0_2_195
*1052 FILLER_0_2_197
*1053 FILLER_0_2_209
*1054 FILLER_0_2_221
*1055 FILLER_0_2_233
*1056 FILLER_0_2_245
*1057 FILLER_0_2_251
*1058 FILLER_0_2_253
*1059 FILLER_0_2_265
*1060 FILLER_0_2_27
*1061 FILLER_0_2_277
*1062 FILLER_0_2_289
*1063 FILLER_0_2_29
*1064 FILLER_0_2_3
*1065 FILLER_0_2_301
*1066 FILLER_0_2_307
*1067 FILLER_0_2_309
*1068 FILLER_0_2_321
*1069 FILLER_0_2_333
*1070 FILLER_0_2_345
*1071 FILLER_0_2_41
*1072 FILLER_0_2_53
*1073 FILLER_0_2_65
*1074 FILLER_0_2_77
*1075 FILLER_0_2_83
*1076 FILLER_0_2_85
*1077 FILLER_0_2_97
*1078 FILLER_0_30_109
*1079 FILLER_0_30_121
*1080 FILLER_0_30_133
*1081 FILLER_0_30_139
*1082 FILLER_0_30_15
*1083 FILLER_0_30_170
*1084 FILLER_0_30_183
*1085 FILLER_0_30_223
*1086 FILLER_0_30_235
*1087 FILLER_0_30_247
*1088 FILLER_0_30_251
*1089 FILLER_0_30_253
*1090 FILLER_0_30_260
*1091 FILLER_0_30_27
*1092 FILLER_0_30_272
*1093 FILLER_0_30_29
*1094 FILLER_0_30_3
*1095 FILLER_0_30_344
*1096 FILLER_0_30_350
*1097 FILLER_0_30_41
*1098 FILLER_0_30_53
*1099 FILLER_0_30_65
*1100 FILLER_0_30_77
*1101 FILLER_0_30_83
*1102 FILLER_0_30_85
*1103 FILLER_0_30_97
*1104 FILLER_0_31_105
*1105 FILLER_0_31_111
*1106 FILLER_0_31_113
*1107 FILLER_0_31_125
*1108 FILLER_0_31_137
*1109 FILLER_0_31_15
*1110 FILLER_0_31_169
*1111 FILLER_0_31_184
*1112 FILLER_0_31_190
*1113 FILLER_0_31_222
*1114 FILLER_0_31_231
*1115 FILLER_0_31_243
*1116 FILLER_0_31_249
*1117 FILLER_0_31_266
*1118 FILLER_0_31_27
*1119 FILLER_0_31_276
*1120 FILLER_0_31_3
*1121 FILLER_0_31_308
*1122 FILLER_0_31_349
*1123 FILLER_0_31_39
*1124 FILLER_0_31_51
*1125 FILLER_0_31_55
*1126 FILLER_0_31_57
*1127 FILLER_0_31_69
*1128 FILLER_0_31_81
*1129 FILLER_0_31_93
*1130 FILLER_0_32_109
*1131 FILLER_0_32_121
*1132 FILLER_0_32_133
*1133 FILLER_0_32_139
*1134 FILLER_0_32_15
*1135 FILLER_0_32_175
*1136 FILLER_0_32_187
*1137 FILLER_0_32_195
*1138 FILLER_0_32_230
*1139 FILLER_0_32_242
*1140 FILLER_0_32_250
*1141 FILLER_0_32_253
*1142 FILLER_0_32_265
*1143 FILLER_0_32_27
*1144 FILLER_0_32_29
*1145 FILLER_0_32_3
*1146 FILLER_0_32_309
*1147 FILLER_0_32_347
*1148 FILLER_0_32_41
*1149 FILLER_0_32_53
*1150 FILLER_0_32_65
*1151 FILLER_0_32_77
*1152 FILLER_0_32_83
*1153 FILLER_0_32_85
*1154 FILLER_0_32_97
*1155 FILLER_0_33_105
*1156 FILLER_0_33_111
*1157 FILLER_0_33_133
*1158 FILLER_0_33_137
*1159 FILLER_0_33_143
*1160 FILLER_0_33_15
*1161 FILLER_0_33_166
*1162 FILLER_0_33_169
*1163 FILLER_0_33_175
*1164 FILLER_0_33_181
*1165 FILLER_0_33_187
*1166 FILLER_0_33_196
*1167 FILLER_0_33_217
*1168 FILLER_0_33_223
*1169 FILLER_0_33_225
*1170 FILLER_0_33_229
*1171 FILLER_0_33_236
*1172 FILLER_0_33_27
*1173 FILLER_0_33_273
*1174 FILLER_0_33_3
*1175 FILLER_0_33_322
*1176 FILLER_0_33_326
*1177 FILLER_0_33_345
*1178 FILLER_0_33_39
*1179 FILLER_0_33_51
*1180 FILLER_0_33_55
*1181 FILLER_0_33_57
*1182 FILLER_0_33_69
*1183 FILLER_0_33_81
*1184 FILLER_0_33_93
*1185 FILLER_0_34_109
*1186 FILLER_0_34_132
*1187 FILLER_0_34_141
*1188 FILLER_0_34_145
*1189 FILLER_0_34_15
*1190 FILLER_0_34_157
*1191 FILLER_0_34_169
*1192 FILLER_0_34_181
*1193 FILLER_0_34_187
*1194 FILLER_0_34_193
*1195 FILLER_0_34_205
*1196 FILLER_0_34_217
*1197 FILLER_0_34_250
*1198 FILLER_0_34_256
*1199 FILLER_0_34_264
*1200 FILLER_0_34_27
*1201 FILLER_0_34_29
*1202 FILLER_0_34_3
*1203 FILLER_0_34_309
*1204 FILLER_0_34_324
*1205 FILLER_0_34_346
*1206 FILLER_0_34_350
*1207 FILLER_0_34_41
*1208 FILLER_0_34_53
*1209 FILLER_0_34_65
*1210 FILLER_0_34_77
*1211 FILLER_0_34_83
*1212 FILLER_0_34_85
*1213 FILLER_0_34_97
*1214 FILLER_0_35_105
*1215 FILLER_0_35_111
*1216 FILLER_0_35_113
*1217 FILLER_0_35_124
*1218 FILLER_0_35_129
*1219 FILLER_0_35_143
*1220 FILLER_0_35_15
*1221 FILLER_0_35_154
*1222 FILLER_0_35_166
*1223 FILLER_0_35_177
*1224 FILLER_0_35_189
*1225 FILLER_0_35_196
*1226 FILLER_0_35_220
*1227 FILLER_0_35_225
*1228 FILLER_0_35_249
*1229 FILLER_0_35_261
*1230 FILLER_0_35_27
*1231 FILLER_0_35_290
*1232 FILLER_0_35_3
*1233 FILLER_0_35_301
*1234 FILLER_0_35_305
*1235 FILLER_0_35_346
*1236 FILLER_0_35_350
*1237 FILLER_0_35_39
*1238 FILLER_0_35_51
*1239 FILLER_0_35_55
*1240 FILLER_0_35_57
*1241 FILLER_0_35_69
*1242 FILLER_0_35_81
*1243 FILLER_0_35_93
*1244 FILLER_0_36_109
*1245 FILLER_0_36_121
*1246 FILLER_0_36_129
*1247 FILLER_0_36_141
*1248 FILLER_0_36_145
*1249 FILLER_0_36_15
*1250 FILLER_0_36_165
*1251 FILLER_0_36_188
*1252 FILLER_0_36_226
*1253 FILLER_0_36_235
*1254 FILLER_0_36_240
*1255 FILLER_0_36_246
*1256 FILLER_0_36_260
*1257 FILLER_0_36_27
*1258 FILLER_0_36_288
*1259 FILLER_0_36_29
*1260 FILLER_0_36_3
*1261 FILLER_0_36_328
*1262 FILLER_0_36_41
*1263 FILLER_0_36_53
*1264 FILLER_0_36_65
*1265 FILLER_0_36_77
*1266 FILLER_0_36_83
*1267 FILLER_0_36_85
*1268 FILLER_0_36_97
*1269 FILLER_0_37_105
*1270 FILLER_0_37_111
*1271 FILLER_0_37_113
*1272 FILLER_0_37_15
*1273 FILLER_0_37_169
*1274 FILLER_0_37_218
*1275 FILLER_0_37_249
*1276 FILLER_0_37_27
*1277 FILLER_0_37_278
*1278 FILLER_0_37_3
*1279 FILLER_0_37_310
*1280 FILLER_0_37_337
*1281 FILLER_0_37_350
*1282 FILLER_0_37_39
*1283 FILLER_0_37_51
*1284 FILLER_0_37_55
*1285 FILLER_0_37_57
*1286 FILLER_0_37_69
*1287 FILLER_0_37_81
*1288 FILLER_0_37_93
*1289 FILLER_0_38_102
*1290 FILLER_0_38_106
*1291 FILLER_0_38_110
*1292 FILLER_0_38_113
*1293 FILLER_0_38_118
*1294 FILLER_0_38_122
*1295 FILLER_0_38_126
*1296 FILLER_0_38_130
*1297 FILLER_0_38_134
*1298 FILLER_0_38_14
*1299 FILLER_0_38_141
*1300 FILLER_0_38_153
*1301 FILLER_0_38_165
*1302 FILLER_0_38_169
*1303 FILLER_0_38_18
*1304 FILLER_0_38_181
*1305 FILLER_0_38_192
*1306 FILLER_0_38_197
*1307 FILLER_0_38_209
*1308 FILLER_0_38_22
*1309 FILLER_0_38_225
*1310 FILLER_0_38_239
*1311 FILLER_0_38_251
*1312 FILLER_0_38_253
*1313 FILLER_0_38_265
*1314 FILLER_0_38_3
*1315 FILLER_0_38_309
*1316 FILLER_0_38_32
*1317 FILLER_0_38_321
*1318 FILLER_0_38_334
*1319 FILLER_0_38_38
*1320 FILLER_0_38_42
*1321 FILLER_0_38_46
*1322 FILLER_0_38_50
*1323 FILLER_0_38_54
*1324 FILLER_0_38_57
*1325 FILLER_0_38_62
*1326 FILLER_0_38_66
*1327 FILLER_0_38_70
*1328 FILLER_0_38_74
*1329 FILLER_0_38_78
*1330 FILLER_0_38_88
*1331 FILLER_0_38_94
*1332 FILLER_0_38_98
*1333 FILLER_0_3_105
*1334 FILLER_0_3_111
*1335 FILLER_0_3_113
*1336 FILLER_0_3_125
*1337 FILLER_0_3_137
*1338 FILLER_0_3_149
*1339 FILLER_0_3_15
*1340 FILLER_0_3_161
*1341 FILLER_0_3_167
*1342 FILLER_0_3_169
*1343 FILLER_0_3_181
*1344 FILLER_0_3_193
*1345 FILLER_0_3_205
*1346 FILLER_0_3_217
*1347 FILLER_0_3_223
*1348 FILLER_0_3_225
*1349 FILLER_0_3_237
*1350 FILLER_0_3_249
*1351 FILLER_0_3_261
*1352 FILLER_0_3_27
*1353 FILLER_0_3_273
*1354 FILLER_0_3_279
*1355 FILLER_0_3_281
*1356 FILLER_0_3_293
*1357 FILLER_0_3_3
*1358 FILLER_0_3_305
*1359 FILLER_0_3_317
*1360 FILLER_0_3_329
*1361 FILLER_0_3_335
*1362 FILLER_0_3_337
*1363 FILLER_0_3_349
*1364 FILLER_0_3_39
*1365 FILLER_0_3_51
*1366 FILLER_0_3_55
*1367 FILLER_0_3_57
*1368 FILLER_0_3_69
*1369 FILLER_0_3_81
*1370 FILLER_0_3_93
*1371 FILLER_0_4_109
*1372 FILLER_0_4_121
*1373 FILLER_0_4_133
*1374 FILLER_0_4_139
*1375 FILLER_0_4_141
*1376 FILLER_0_4_15
*1377 FILLER_0_4_153
*1378 FILLER_0_4_165
*1379 FILLER_0_4_177
*1380 FILLER_0_4_189
*1381 FILLER_0_4_195
*1382 FILLER_0_4_197
*1383 FILLER_0_4_209
*1384 FILLER_0_4_221
*1385 FILLER_0_4_233
*1386 FILLER_0_4_245
*1387 FILLER_0_4_251
*1388 FILLER_0_4_253
*1389 FILLER_0_4_265
*1390 FILLER_0_4_27
*1391 FILLER_0_4_277
*1392 FILLER_0_4_289
*1393 FILLER_0_4_29
*1394 FILLER_0_4_3
*1395 FILLER_0_4_301
*1396 FILLER_0_4_307
*1397 FILLER_0_4_309
*1398 FILLER_0_4_321
*1399 FILLER_0_4_333
*1400 FILLER_0_4_345
*1401 FILLER_0_4_41
*1402 FILLER_0_4_53
*1403 FILLER_0_4_65
*1404 FILLER_0_4_77
*1405 FILLER_0_4_83
*1406 FILLER_0_4_85
*1407 FILLER_0_4_97
*1408 FILLER_0_5_105
*1409 FILLER_0_5_111
*1410 FILLER_0_5_113
*1411 FILLER_0_5_125
*1412 FILLER_0_5_137
*1413 FILLER_0_5_149
*1414 FILLER_0_5_15
*1415 FILLER_0_5_161
*1416 FILLER_0_5_167
*1417 FILLER_0_5_169
*1418 FILLER_0_5_181
*1419 FILLER_0_5_193
*1420 FILLER_0_5_205
*1421 FILLER_0_5_217
*1422 FILLER_0_5_223
*1423 FILLER_0_5_225
*1424 FILLER_0_5_237
*1425 FILLER_0_5_249
*1426 FILLER_0_5_261
*1427 FILLER_0_5_27
*1428 FILLER_0_5_273
*1429 FILLER_0_5_279
*1430 FILLER_0_5_281
*1431 FILLER_0_5_293
*1432 FILLER_0_5_3
*1433 FILLER_0_5_305
*1434 FILLER_0_5_317
*1435 FILLER_0_5_329
*1436 FILLER_0_5_335
*1437 FILLER_0_5_337
*1438 FILLER_0_5_349
*1439 FILLER_0_5_39
*1440 FILLER_0_5_51
*1441 FILLER_0_5_55
*1442 FILLER_0_5_57
*1443 FILLER_0_5_69
*1444 FILLER_0_5_81
*1445 FILLER_0_5_93
*1446 FILLER_0_6_109
*1447 FILLER_0_6_121
*1448 FILLER_0_6_133
*1449 FILLER_0_6_139
*1450 FILLER_0_6_141
*1451 FILLER_0_6_15
*1452 FILLER_0_6_153
*1453 FILLER_0_6_165
*1454 FILLER_0_6_177
*1455 FILLER_0_6_189
*1456 FILLER_0_6_195
*1457 FILLER_0_6_197
*1458 FILLER_0_6_209
*1459 FILLER_0_6_221
*1460 FILLER_0_6_233
*1461 FILLER_0_6_245
*1462 FILLER_0_6_251
*1463 FILLER_0_6_253
*1464 FILLER_0_6_265
*1465 FILLER_0_6_27
*1466 FILLER_0_6_277
*1467 FILLER_0_6_289
*1468 FILLER_0_6_29
*1469 FILLER_0_6_3
*1470 FILLER_0_6_301
*1471 FILLER_0_6_307
*1472 FILLER_0_6_309
*1473 FILLER_0_6_321
*1474 FILLER_0_6_333
*1475 FILLER_0_6_345
*1476 FILLER_0_6_41
*1477 FILLER_0_6_53
*1478 FILLER_0_6_65
*1479 FILLER_0_6_77
*1480 FILLER_0_6_83
*1481 FILLER_0_6_85
*1482 FILLER_0_6_97