*SPEF "ieee 1481-1999"
*DESIGN "tt_um_wokwi_375217288209912833"
*DATE "11:11:11 Fri 11 11, 1111"
*VENDOR "OpenRCX"
*PROGRAM "Parallel Extraction"
*VERSION "1.0"
*DESIGN_FLOW "NAME_SCOPE LOCAL" "PIN_CAP NONE"
*DIVIDER /
*DELIMITER :
*BUS_DELIMITER []
*T_UNIT 1 NS
*C_UNIT 1 PF
*R_UNIT 1 OHM
*L_UNIT 1 HENRY

*NAME_MAP
*3 clk
*4 ena
*5 rst_n
*6 ui_in[0]
*7 ui_in[1]
*8 ui_in[2]
*9 ui_in[3]
*10 ui_in[4]
*11 ui_in[5]
*12 ui_in[6]
*13 ui_in[7]
*14 uio_in[0]
*15 uio_in[1]
*16 uio_in[2]
*17 uio_in[3]
*18 uio_in[4]
*19 uio_in[5]
*20 uio_in[6]
*21 uio_in[7]
*22 net10
*23 net11
*24 net12
*25 net13
*26 net14
*27 net15
*28 net16
*29 net17
*30 net18
*31 net19
*32 net20
*33 net21
*34 net22
*35 net23
*36 net24
*37 net25
*38 uo_out[0]
*39 uo_out[1]
*40 uo_out[2]
*41 uo_out[3]
*42 net26
*43 net27
*44 uo_out[6]
*45 uo_out[7]
*46 _000_
*47 _001_
*48 _002_
*49 _003_
*50 _004_
*51 _005_
*52 _006_
*53 _007_
*54 _008_
*55 _009_
*56 _010_
*57 _011_
*58 _012_
*59 _013_
*60 _014_
*61 _015_
*62 _016_
*63 _017_
*64 _018_
*65 _019_
*66 _020_
*67 _021_
*68 _022_
*69 _023_
*70 _024_
*71 _025_
*72 _026_
*73 _027_
*74 and1\.out
*75 and10\.out
*76 and2\.b
*77 and20\.out
*78 and22\.out
*79 and23\.out
*80 and24\.out
*81 and25\.out
*82 and26\.out
*83 and3\.out
*84 and4\.b
*85 and5\.a
*86 and6\.out
*87 and7\.out
*88 and8\.out
*89 clknet_0_flop10\.clk
*90 clknet_1_0__leaf_flop10\.clk
*91 clknet_1_1__leaf_flop10\.clk
*92 flop10\.clk
*93 flop10\.q
*94 flop2\.d
*95 flop3\.q
*96 flop4\.q
*97 flop5\.q
*98 flop6\.q
*99 flop7\.q
*100 flop8\.d
*101 flop9\.d
*102 net1
*103 net2
*104 net28
*105 net29
*106 net3
*107 net30
*108 net31
*109 net4
*110 net5
*111 net6
*112 net7
*113 net8
*114 net9
*115 FILLER_0_0_109
*116 FILLER_0_0_113
*117 FILLER_0_0_125
*118 FILLER_0_0_137
*119 FILLER_0_0_141
*120 FILLER_0_0_15
*121 FILLER_0_0_153
*122 FILLER_0_0_165
*123 FILLER_0_0_169
*124 FILLER_0_0_181
*125 FILLER_0_0_193
*126 FILLER_0_0_197
*127 FILLER_0_0_209
*128 FILLER_0_0_221
*129 FILLER_0_0_225
*130 FILLER_0_0_237
*131 FILLER_0_0_249
*132 FILLER_0_0_253
*133 FILLER_0_0_265
*134 FILLER_0_0_27
*135 FILLER_0_0_277
*136 FILLER_0_0_281
*137 FILLER_0_0_29
*138 FILLER_0_0_293
*139 FILLER_0_0_3
*140 FILLER_0_0_305
*141 FILLER_0_0_309
*142 FILLER_0_0_321
*143 FILLER_0_0_333
*144 FILLER_0_0_337
*145 FILLER_0_0_349
*146 FILLER_0_0_41
*147 FILLER_0_0_53
*148 FILLER_0_0_57
*149 FILLER_0_0_69
*150 FILLER_0_0_81
*151 FILLER_0_0_85
*152 FILLER_0_0_97
*153 FILLER_0_10_109
*154 FILLER_0_10_121
*155 FILLER_0_10_133
*156 FILLER_0_10_139
*157 FILLER_0_10_141
*158 FILLER_0_10_15
*159 FILLER_0_10_153
*160 FILLER_0_10_165
*161 FILLER_0_10_177
*162 FILLER_0_10_189
*163 FILLER_0_10_195
*164 FILLER_0_10_197
*165 FILLER_0_10_209
*166 FILLER_0_10_221
*167 FILLER_0_10_233
*168 FILLER_0_10_245
*169 FILLER_0_10_251
*170 FILLER_0_10_253
*171 FILLER_0_10_265
*172 FILLER_0_10_27
*173 FILLER_0_10_277
*174 FILLER_0_10_289
*175 FILLER_0_10_29
*176 FILLER_0_10_3
*177 FILLER_0_10_301
*178 FILLER_0_10_307
*179 FILLER_0_10_309
*180 FILLER_0_10_321
*181 FILLER_0_10_333
*182 FILLER_0_10_345
*183 FILLER_0_10_41
*184 FILLER_0_10_53
*185 FILLER_0_10_65
*186 FILLER_0_10_77
*187 FILLER_0_10_83
*188 FILLER_0_10_85
*189 FILLER_0_10_97
*190 FILLER_0_11_105
*191 FILLER_0_11_111
*192 FILLER_0_11_113
*193 FILLER_0_11_125
*194 FILLER_0_11_137
*195 FILLER_0_11_149
*196 FILLER_0_11_15
*197 FILLER_0_11_161
*198 FILLER_0_11_167
*199 FILLER_0_11_169
*200 FILLER_0_11_181
*201 FILLER_0_11_193
*202 FILLER_0_11_205
*203 FILLER_0_11_217
*204 FILLER_0_11_223
*205 FILLER_0_11_225
*206 FILLER_0_11_237
*207 FILLER_0_11_249
*208 FILLER_0_11_261
*209 FILLER_0_11_27
*210 FILLER_0_11_273
*211 FILLER_0_11_279
*212 FILLER_0_11_281
*213 FILLER_0_11_293
*214 FILLER_0_11_3
*215 FILLER_0_11_305
*216 FILLER_0_11_317
*217 FILLER_0_11_329
*218 FILLER_0_11_335
*219 FILLER_0_11_337
*220 FILLER_0_11_349
*221 FILLER_0_11_39
*222 FILLER_0_11_51
*223 FILLER_0_11_55
*224 FILLER_0_11_57
*225 FILLER_0_11_69
*226 FILLER_0_11_81
*227 FILLER_0_11_93
*228 FILLER_0_12_109
*229 FILLER_0_12_121
*230 FILLER_0_12_133
*231 FILLER_0_12_139
*232 FILLER_0_12_141
*233 FILLER_0_12_15
*234 FILLER_0_12_153
*235 FILLER_0_12_165
*236 FILLER_0_12_177
*237 FILLER_0_12_189
*238 FILLER_0_12_195
*239 FILLER_0_12_197
*240 FILLER_0_12_209
*241 FILLER_0_12_221
*242 FILLER_0_12_233
*243 FILLER_0_12_245
*244 FILLER_0_12_251
*245 FILLER_0_12_253
*246 FILLER_0_12_265
*247 FILLER_0_12_27
*248 FILLER_0_12_277
*249 FILLER_0_12_289
*250 FILLER_0_12_29
*251 FILLER_0_12_3
*252 FILLER_0_12_301
*253 FILLER_0_12_307
*254 FILLER_0_12_309
*255 FILLER_0_12_321
*256 FILLER_0_12_333
*257 FILLER_0_12_345
*258 FILLER_0_12_41
*259 FILLER_0_12_53
*260 FILLER_0_12_65
*261 FILLER_0_12_77
*262 FILLER_0_12_83
*263 FILLER_0_12_85
*264 FILLER_0_12_97
*265 FILLER_0_13_105
*266 FILLER_0_13_111
*267 FILLER_0_13_113
*268 FILLER_0_13_125
*269 FILLER_0_13_137
*270 FILLER_0_13_149
*271 FILLER_0_13_15
*272 FILLER_0_13_161
*273 FILLER_0_13_167
*274 FILLER_0_13_169
*275 FILLER_0_13_181
*276 FILLER_0_13_193
*277 FILLER_0_13_205
*278 FILLER_0_13_217
*279 FILLER_0_13_223
*280 FILLER_0_13_225
*281 FILLER_0_13_237
*282 FILLER_0_13_249
*283 FILLER_0_13_261
*284 FILLER_0_13_27
*285 FILLER_0_13_273
*286 FILLER_0_13_279
*287 FILLER_0_13_281
*288 FILLER_0_13_293
*289 FILLER_0_13_3
*290 FILLER_0_13_305
*291 FILLER_0_13_317
*292 FILLER_0_13_329
*293 FILLER_0_13_335
*294 FILLER_0_13_337
*295 FILLER_0_13_349
*296 FILLER_0_13_39
*297 FILLER_0_13_51
*298 FILLER_0_13_55
*299 FILLER_0_13_57
*300 FILLER_0_13_69
*301 FILLER_0_13_81
*302 FILLER_0_13_93
*303 FILLER_0_14_109
*304 FILLER_0_14_121
*305 FILLER_0_14_133
*306 FILLER_0_14_139
*307 FILLER_0_14_141
*308 FILLER_0_14_15
*309 FILLER_0_14_153
*310 FILLER_0_14_165
*311 FILLER_0_14_177
*312 FILLER_0_14_189
*313 FILLER_0_14_195
*314 FILLER_0_14_197
*315 FILLER_0_14_209
*316 FILLER_0_14_221
*317 FILLER_0_14_233
*318 FILLER_0_14_245
*319 FILLER_0_14_251
*320 FILLER_0_14_253
*321 FILLER_0_14_265
*322 FILLER_0_14_27
*323 FILLER_0_14_277
*324 FILLER_0_14_289
*325 FILLER_0_14_29
*326 FILLER_0_14_3
*327 FILLER_0_14_301
*328 FILLER_0_14_307
*329 FILLER_0_14_309
*330 FILLER_0_14_321
*331 FILLER_0_14_333
*332 FILLER_0_14_345
*333 FILLER_0_14_41
*334 FILLER_0_14_53
*335 FILLER_0_14_65
*336 FILLER_0_14_77
*337 FILLER_0_14_83
*338 FILLER_0_14_85
*339 FILLER_0_14_97
*340 FILLER_0_15_105
*341 FILLER_0_15_111
*342 FILLER_0_15_113
*343 FILLER_0_15_125
*344 FILLER_0_15_137
*345 FILLER_0_15_149
*346 FILLER_0_15_15
*347 FILLER_0_15_161
*348 FILLER_0_15_167
*349 FILLER_0_15_169
*350 FILLER_0_15_181
*351 FILLER_0_15_193
*352 FILLER_0_15_205
*353 FILLER_0_15_217
*354 FILLER_0_15_223
*355 FILLER_0_15_225
*356 FILLER_0_15_237
*357 FILLER_0_15_249
*358 FILLER_0_15_261
*359 FILLER_0_15_27
*360 FILLER_0_15_273
*361 FILLER_0_15_279
*362 FILLER_0_15_281
*363 FILLER_0_15_293
*364 FILLER_0_15_3
*365 FILLER_0_15_305
*366 FILLER_0_15_317
*367 FILLER_0_15_329
*368 FILLER_0_15_335
*369 FILLER_0_15_337
*370 FILLER_0_15_349
*371 FILLER_0_15_39
*372 FILLER_0_15_51
*373 FILLER_0_15_55
*374 FILLER_0_15_57
*375 FILLER_0_15_69
*376 FILLER_0_15_81
*377 FILLER_0_15_93
*378 FILLER_0_16_109
*379 FILLER_0_16_121
*380 FILLER_0_16_133
*381 FILLER_0_16_139
*382 FILLER_0_16_141
*383 FILLER_0_16_15
*384 FILLER_0_16_153
*385 FILLER_0_16_165
*386 FILLER_0_16_177
*387 FILLER_0_16_189
*388 FILLER_0_16_195
*389 FILLER_0_16_197
*390 FILLER_0_16_209
*391 FILLER_0_16_221
*392 FILLER_0_16_233
*393 FILLER_0_16_245
*394 FILLER_0_16_251
*395 FILLER_0_16_253
*396 FILLER_0_16_265
*397 FILLER_0_16_27
*398 FILLER_0_16_277
*399 FILLER_0_16_289
*400 FILLER_0_16_29
*401 FILLER_0_16_3
*402 FILLER_0_16_301
*403 FILLER_0_16_307
*404 FILLER_0_16_309
*405 FILLER_0_16_321
*406 FILLER_0_16_333
*407 FILLER_0_16_345
*408 FILLER_0_16_41
*409 FILLER_0_16_53
*410 FILLER_0_16_65
*411 FILLER_0_16_77
*412 FILLER_0_16_83
*413 FILLER_0_16_85
*414 FILLER_0_16_97
*415 FILLER_0_17_105
*416 FILLER_0_17_111
*417 FILLER_0_17_113
*418 FILLER_0_17_125
*419 FILLER_0_17_137
*420 FILLER_0_17_149
*421 FILLER_0_17_15
*422 FILLER_0_17_161
*423 FILLER_0_17_167
*424 FILLER_0_17_169
*425 FILLER_0_17_181
*426 FILLER_0_17_193
*427 FILLER_0_17_205
*428 FILLER_0_17_217
*429 FILLER_0_17_223
*430 FILLER_0_17_225
*431 FILLER_0_17_237
*432 FILLER_0_17_249
*433 FILLER_0_17_261
*434 FILLER_0_17_27
*435 FILLER_0_17_273
*436 FILLER_0_17_279
*437 FILLER_0_17_281
*438 FILLER_0_17_293
*439 FILLER_0_17_3
*440 FILLER_0_17_305
*441 FILLER_0_17_317
*442 FILLER_0_17_329
*443 FILLER_0_17_335
*444 FILLER_0_17_337
*445 FILLER_0_17_349
*446 FILLER_0_17_39
*447 FILLER_0_17_51
*448 FILLER_0_17_55
*449 FILLER_0_17_57
*450 FILLER_0_17_69
*451 FILLER_0_17_81
*452 FILLER_0_17_93
*453 FILLER_0_18_109
*454 FILLER_0_18_121
*455 FILLER_0_18_133
*456 FILLER_0_18_139
*457 FILLER_0_18_141
*458 FILLER_0_18_15
*459 FILLER_0_18_153
*460 FILLER_0_18_165
*461 FILLER_0_18_177
*462 FILLER_0_18_189
*463 FILLER_0_18_195
*464 FILLER_0_18_197
*465 FILLER_0_18_209
*466 FILLER_0_18_221
*467 FILLER_0_18_233
*468 FILLER_0_18_245
*469 FILLER_0_18_251
*470 FILLER_0_18_253
*471 FILLER_0_18_265
*472 FILLER_0_18_27
*473 FILLER_0_18_277
*474 FILLER_0_18_289
*475 FILLER_0_18_29
*476 FILLER_0_18_3
*477 FILLER_0_18_301
*478 FILLER_0_18_307
*479 FILLER_0_18_309
*480 FILLER_0_18_321
*481 FILLER_0_18_333
*482 FILLER_0_18_345
*483 FILLER_0_18_41
*484 FILLER_0_18_53
*485 FILLER_0_18_65
*486 FILLER_0_18_77
*487 FILLER_0_18_83
*488 FILLER_0_18_85
*489 FILLER_0_18_97
*490 FILLER_0_19_105
*491 FILLER_0_19_111
*492 FILLER_0_19_113
*493 FILLER_0_19_125
*494 FILLER_0_19_137
*495 FILLER_0_19_149
*496 FILLER_0_19_15
*497 FILLER_0_19_161
*498 FILLER_0_19_167
*499 FILLER_0_19_169
*500 FILLER_0_19_181
*501 FILLER_0_19_193
*502 FILLER_0_19_205
*503 FILLER_0_19_217
*504 FILLER_0_19_223
*505 FILLER_0_19_225
*506 FILLER_0_19_237
*507 FILLER_0_19_249
*508 FILLER_0_19_261
*509 FILLER_0_19_27
*510 FILLER_0_19_273
*511 FILLER_0_19_279
*512 FILLER_0_19_281
*513 FILLER_0_19_293
*514 FILLER_0_19_3
*515 FILLER_0_19_305
*516 FILLER_0_19_317
*517 FILLER_0_19_329
*518 FILLER_0_19_335
*519 FILLER_0_19_337
*520 FILLER_0_19_349
*521 FILLER_0_19_39
*522 FILLER_0_19_51
*523 FILLER_0_19_55
*524 FILLER_0_19_57
*525 FILLER_0_19_69
*526 FILLER_0_19_81
*527 FILLER_0_19_93
*528 FILLER_0_1_105
*529 FILLER_0_1_111
*530 FILLER_0_1_113
*531 FILLER_0_1_125
*532 FILLER_0_1_137
*533 FILLER_0_1_149
*534 FILLER_0_1_15
*535 FILLER_0_1_161
*536 FILLER_0_1_167
*537 FILLER_0_1_169
*538 FILLER_0_1_181
*539 FILLER_0_1_193
*540 FILLER_0_1_205
*541 FILLER_0_1_217
*542 FILLER_0_1_223
*543 FILLER_0_1_225
*544 FILLER_0_1_237
*545 FILLER_0_1_249
*546 FILLER_0_1_261
*547 FILLER_0_1_27
*548 FILLER_0_1_273
*549 FILLER_0_1_279
*550 FILLER_0_1_281
*551 FILLER_0_1_293
*552 FILLER_0_1_3
*553 FILLER_0_1_305
*554 FILLER_0_1_317
*555 FILLER_0_1_329
*556 FILLER_0_1_335
*557 FILLER_0_1_337
*558 FILLER_0_1_349
*559 FILLER_0_1_39
*560 FILLER_0_1_51
*561 FILLER_0_1_55
*562 FILLER_0_1_57
*563 FILLER_0_1_69
*564 FILLER_0_1_81
*565 FILLER_0_1_93
*566 FILLER_0_20_109
*567 FILLER_0_20_121
*568 FILLER_0_20_133
*569 FILLER_0_20_139
*570 FILLER_0_20_141
*571 FILLER_0_20_15
*572 FILLER_0_20_153
*573 FILLER_0_20_165
*574 FILLER_0_20_177
*575 FILLER_0_20_189
*576 FILLER_0_20_195
*577 FILLER_0_20_197
*578 FILLER_0_20_209
*579 FILLER_0_20_221
*580 FILLER_0_20_233
*581 FILLER_0_20_245
*582 FILLER_0_20_251
*583 FILLER_0_20_253
*584 FILLER_0_20_265
*585 FILLER_0_20_27
*586 FILLER_0_20_277
*587 FILLER_0_20_289
*588 FILLER_0_20_29
*589 FILLER_0_20_3
*590 FILLER_0_20_301
*591 FILLER_0_20_307
*592 FILLER_0_20_309
*593 FILLER_0_20_321
*594 FILLER_0_20_333
*595 FILLER_0_20_345
*596 FILLER_0_20_41
*597 FILLER_0_20_53
*598 FILLER_0_20_65
*599 FILLER_0_20_77
*600 FILLER_0_20_83
*601 FILLER_0_20_85
*602 FILLER_0_20_97
*603 FILLER_0_21_105
*604 FILLER_0_21_111
*605 FILLER_0_21_113
*606 FILLER_0_21_125
*607 FILLER_0_21_137
*608 FILLER_0_21_149
*609 FILLER_0_21_15
*610 FILLER_0_21_161
*611 FILLER_0_21_167
*612 FILLER_0_21_169
*613 FILLER_0_21_181
*614 FILLER_0_21_193
*615 FILLER_0_21_205
*616 FILLER_0_21_217
*617 FILLER_0_21_223
*618 FILLER_0_21_225
*619 FILLER_0_21_237
*620 FILLER_0_21_249
*621 FILLER_0_21_261
*622 FILLER_0_21_27
*623 FILLER_0_21_273
*624 FILLER_0_21_279
*625 FILLER_0_21_281
*626 FILLER_0_21_293
*627 FILLER_0_21_3
*628 FILLER_0_21_305
*629 FILLER_0_21_317
*630 FILLER_0_21_329
*631 FILLER_0_21_335
*632 FILLER_0_21_337
*633 FILLER_0_21_349
*634 FILLER_0_21_39
*635 FILLER_0_21_51
*636 FILLER_0_21_55
*637 FILLER_0_21_57
*638 FILLER_0_21_69
*639 FILLER_0_21_81
*640 FILLER_0_21_93
*641 FILLER_0_22_109
*642 FILLER_0_22_121
*643 FILLER_0_22_133
*644 FILLER_0_22_139
*645 FILLER_0_22_141
*646 FILLER_0_22_15
*647 FILLER_0_22_153
*648 FILLER_0_22_165
*649 FILLER_0_22_177
*650 FILLER_0_22_189
*651 FILLER_0_22_195
*652 FILLER_0_22_197
*653 FILLER_0_22_209
*654 FILLER_0_22_221
*655 FILLER_0_22_233
*656 FILLER_0_22_245
*657 FILLER_0_22_251
*658 FILLER_0_22_253
*659 FILLER_0_22_265
*660 FILLER_0_22_27
*661 FILLER_0_22_277
*662 FILLER_0_22_289
*663 FILLER_0_22_29
*664 FILLER_0_22_3
*665 FILLER_0_22_301
*666 FILLER_0_22_307
*667 FILLER_0_22_309
*668 FILLER_0_22_321
*669 FILLER_0_22_333
*670 FILLER_0_22_345
*671 FILLER_0_22_41
*672 FILLER_0_22_53
*673 FILLER_0_22_65
*674 FILLER_0_22_77
*675 FILLER_0_22_83
*676 FILLER_0_22_85
*677 FILLER_0_22_97
*678 FILLER_0_23_105
*679 FILLER_0_23_111
*680 FILLER_0_23_113
*681 FILLER_0_23_125
*682 FILLER_0_23_137
*683 FILLER_0_23_149
*684 FILLER_0_23_15
*685 FILLER_0_23_161
*686 FILLER_0_23_167
*687 FILLER_0_23_169
*688 FILLER_0_23_181
*689 FILLER_0_23_193
*690 FILLER_0_23_205
*691 FILLER_0_23_217
*692 FILLER_0_23_223
*693 FILLER_0_23_225
*694 FILLER_0_23_237
*695 FILLER_0_23_249
*696 FILLER_0_23_261
*697 FILLER_0_23_27
*698 FILLER_0_23_273
*699 FILLER_0_23_279
*700 FILLER_0_23_281
*701 FILLER_0_23_293
*702 FILLER_0_23_3
*703 FILLER_0_23_305
*704 FILLER_0_23_317
*705 FILLER_0_23_329
*706 FILLER_0_23_335
*707 FILLER_0_23_337
*708 FILLER_0_23_349
*709 FILLER_0_23_39
*710 FILLER_0_23_51
*711 FILLER_0_23_55
*712 FILLER_0_23_57
*713 FILLER_0_23_69
*714 FILLER_0_23_81
*715 FILLER_0_23_93
*716 FILLER_0_24_109
*717 FILLER_0_24_121
*718 FILLER_0_24_133
*719 FILLER_0_24_139
*720 FILLER_0_24_141
*721 FILLER_0_24_15
*722 FILLER_0_24_153
*723 FILLER_0_24_165
*724 FILLER_0_24_177
*725 FILLER_0_24_189
*726 FILLER_0_24_195
*727 FILLER_0_24_197
*728 FILLER_0_24_209
*729 FILLER_0_24_221
*730 FILLER_0_24_233
*731 FILLER_0_24_245
*732 FILLER_0_24_251
*733 FILLER_0_24_253
*734 FILLER_0_24_265
*735 FILLER_0_24_27
*736 FILLER_0_24_277
*737 FILLER_0_24_289
*738 FILLER_0_24_29
*739 FILLER_0_24_3
*740 FILLER_0_24_301
*741 FILLER_0_24_307
*742 FILLER_0_24_309
*743 FILLER_0_24_321
*744 FILLER_0_24_333
*745 FILLER_0_24_345
*746 FILLER_0_24_41
*747 FILLER_0_24_53
*748 FILLER_0_24_65
*749 FILLER_0_24_77
*750 FILLER_0_24_83
*751 FILLER_0_24_85
*752 FILLER_0_24_97
*753 FILLER_0_25_105
*754 FILLER_0_25_111
*755 FILLER_0_25_113
*756 FILLER_0_25_125
*757 FILLER_0_25_137
*758 FILLER_0_25_149
*759 FILLER_0_25_15
*760 FILLER_0_25_161
*761 FILLER_0_25_167
*762 FILLER_0_25_169
*763 FILLER_0_25_181
*764 FILLER_0_25_193
*765 FILLER_0_25_205
*766 FILLER_0_25_217
*767 FILLER_0_25_223
*768 FILLER_0_25_225
*769 FILLER_0_25_237
*770 FILLER_0_25_249
*771 FILLER_0_25_261
*772 FILLER_0_25_27
*773 FILLER_0_25_273
*774 FILLER_0_25_279
*775 FILLER_0_25_281
*776 FILLER_0_25_293
*777 FILLER_0_25_3
*778 FILLER_0_25_305
*779 FILLER_0_25_317
*780 FILLER_0_25_329
*781 FILLER_0_25_335
*782 FILLER_0_25_337
*783 FILLER_0_25_349
*784 FILLER_0_25_39
*785 FILLER_0_25_51
*786 FILLER_0_25_55
*787 FILLER_0_25_57
*788 FILLER_0_25_69
*789 FILLER_0_25_81
*790 FILLER_0_25_93
*791 FILLER_0_26_109
*792 FILLER_0_26_121
*793 FILLER_0_26_133
*794 FILLER_0_26_139
*795 FILLER_0_26_141
*796 FILLER_0_26_15
*797 FILLER_0_26_153
*798 FILLER_0_26_165
*799 FILLER_0_26_177
*800 FILLER_0_26_189
*801 FILLER_0_26_195
*802 FILLER_0_26_197
*803 FILLER_0_26_209
*804 FILLER_0_26_221
*805 FILLER_0_26_233
*806 FILLER_0_26_245
*807 FILLER_0_26_251
*808 FILLER_0_26_253
*809 FILLER_0_26_265
*810 FILLER_0_26_27
*811 FILLER_0_26_277
*812 FILLER_0_26_289
*813 FILLER_0_26_29
*814 FILLER_0_26_3
*815 FILLER_0_26_301
*816 FILLER_0_26_307
*817 FILLER_0_26_309
*818 FILLER_0_26_321
*819 FILLER_0_26_333
*820 FILLER_0_26_345
*821 FILLER_0_26_41
*822 FILLER_0_26_53
*823 FILLER_0_26_65
*824 FILLER_0_26_77
*825 FILLER_0_26_83
*826 FILLER_0_26_85
*827 FILLER_0_26_97
*828 FILLER_0_27_105
*829 FILLER_0_27_111
*830 FILLER_0_27_113
*831 FILLER_0_27_125
*832 FILLER_0_27_137
*833 FILLER_0_27_149
*834 FILLER_0_27_15
*835 FILLER_0_27_161
*836 FILLER_0_27_167
*837 FILLER_0_27_169
*838 FILLER_0_27_181
*839 FILLER_0_27_193
*840 FILLER_0_27_205
*841 FILLER_0_27_217
*842 FILLER_0_27_223
*843 FILLER_0_27_225
*844 FILLER_0_27_237
*845 FILLER_0_27_249
*846 FILLER_0_27_261
*847 FILLER_0_27_27
*848 FILLER_0_27_273
*849 FILLER_0_27_279
*850 FILLER_0_27_281
*851 FILLER_0_27_293
*852 FILLER_0_27_3
*853 FILLER_0_27_305
*854 FILLER_0_27_317
*855 FILLER_0_27_329
*856 FILLER_0_27_335
*857 FILLER_0_27_337
*858 FILLER_0_27_349
*859 FILLER_0_27_39
*860 FILLER_0_27_51
*861 FILLER_0_27_55
*862 FILLER_0_27_57
*863 FILLER_0_27_69
*864 FILLER_0_27_81
*865 FILLER_0_27_93
*866 FILLER_0_28_109
*867 FILLER_0_28_121
*868 FILLER_0_28_133
*869 FILLER_0_28_139
*870 FILLER_0_28_141
*871 FILLER_0_28_15
*872 FILLER_0_28_153
*873 FILLER_0_28_165
*874 FILLER_0_28_177
*875 FILLER_0_28_189
*876 FILLER_0_28_195
*877 FILLER_0_28_197
*878 FILLER_0_28_209
*879 FILLER_0_28_221
*880 FILLER_0_28_233
*881 FILLER_0_28_245
*882 FILLER_0_28_251
*883 FILLER_0_28_253
*884 FILLER_0_28_265
*885 FILLER_0_28_27
*886 FILLER_0_28_277
*887 FILLER_0_28_289
*888 FILLER_0_28_29
*889 FILLER_0_28_3
*890 FILLER_0_28_301
*891 FILLER_0_28_307
*892 FILLER_0_28_309
*893 FILLER_0_28_321
*894 FILLER_0_28_333
*895 FILLER_0_28_345
*896 FILLER_0_28_41
*897 FILLER_0_28_53
*898 FILLER_0_28_65
*899 FILLER_0_28_77
*900 FILLER_0_28_83
*901 FILLER_0_28_85
*902 FILLER_0_28_97
*903 FILLER_0_29_105
*904 FILLER_0_29_111
*905 FILLER_0_29_113
*906 FILLER_0_29_125
*907 FILLER_0_29_137
*908 FILLER_0_29_149
*909 FILLER_0_29_15
*910 FILLER_0_29_161
*911 FILLER_0_29_167
*912 FILLER_0_29_169
*913 FILLER_0_29_181
*914 FILLER_0_29_193
*915 FILLER_0_29_205
*916 FILLER_0_29_217
*917 FILLER_0_29_223
*918 FILLER_0_29_225
*919 FILLER_0_29_237
*920 FILLER_0_29_249
*921 FILLER_0_29_261
*922 FILLER_0_29_27
*923 FILLER_0_29_273
*924 FILLER_0_29_279
*925 FILLER_0_29_281
*926 FILLER_0_29_293
*927 FILLER_0_29_3
*928 FILLER_0_29_305
*929 FILLER_0_29_317
*930 FILLER_0_29_329
*931 FILLER_0_29_335
*932 FILLER_0_29_337
*933 FILLER_0_29_349
*934 FILLER_0_29_39
*935 FILLER_0_29_51
*936 FILLER_0_29_55
*937 FILLER_0_29_57
*938 FILLER_0_29_69
*939 FILLER_0_29_81
*940 FILLER_0_29_93
*941 FILLER_0_2_109
*942 FILLER_0_2_121
*943 FILLER_0_2_133
*944 FILLER_0_2_139
*945 FILLER_0_2_141
*946 FILLER_0_2_15
*947 FILLER_0_2_153
*948 FILLER_0_2_165
*949 FILLER_0_2_177
*950 FILLER_0_2_189
*951 FILLER_0_2_195
*952 FILLER_0_2_197
*953 FILLER_0_2_209
*954 FILLER_0_2_221
*955 FILLER_0_2_233
*956 FILLER_0_2_245
*957 FILLER_0_2_251
*958 FILLER_0_2_253
*959 FILLER_0_2_265
*960 FILLER_0_2_27
*961 FILLER_0_2_277
*962 FILLER_0_2_289
*963 FILLER_0_2_29
*964 FILLER_0_2_3
*965 FILLER_0_2_301
*966 FILLER_0_2_307
*967 FILLER_0_2_309
*968 FILLER_0_2_321
*969 FILLER_0_2_333
*970 FILLER_0_2_345
*971 FILLER_0_2_41
*972 FILLER_0_2_53
*973 FILLER_0_2_65
*974 FILLER_0_2_77
*975 FILLER_0_2_83
*976 FILLER_0_2_85
*977 FILLER_0_2_97
*978 FILLER_0_30_109
*979 FILLER_0_30_121
*980 FILLER_0_30_133
*981 FILLER_0_30_139
*982 FILLER_0_30_141
*983 FILLER_0_30_15
*984 FILLER_0_30_153
*985 FILLER_0_30_165
*986 FILLER_0_30_177
*987 FILLER_0_30_189
*988 FILLER_0_30_195
*989 FILLER_0_30_197
*990 FILLER_0_30_204
*991 FILLER_0_30_216
*992 FILLER_0_30_228
*993 FILLER_0_30_240
*994 FILLER_0_30_253
*995 FILLER_0_30_265
*996 FILLER_0_30_27
*997 FILLER_0_30_277
*998 FILLER_0_30_289
*999 FILLER_0_30_29
*1000 FILLER_0_30_3
*1001 FILLER_0_30_301
*1002 FILLER_0_30_307
*1003 FILLER_0_30_309
*1004 FILLER_0_30_321
*1005 FILLER_0_30_333
*1006 FILLER_0_30_345
*1007 FILLER_0_30_41
*1008 FILLER_0_30_53
*1009 FILLER_0_30_65
*1010 FILLER_0_30_77
*1011 FILLER_0_30_83
*1012 FILLER_0_30_85
*1013 FILLER_0_30_97
*1014 FILLER_0_31_105
*1015 FILLER_0_31_111
*1016 FILLER_0_31_113
*1017 FILLER_0_31_125
*1018 FILLER_0_31_137
*1019 FILLER_0_31_149
*1020 FILLER_0_31_15
*1021 FILLER_0_31_161
*1022 FILLER_0_31_167
*1023 FILLER_0_31_169
*1024 FILLER_0_31_181
*1025 FILLER_0_31_193
*1026 FILLER_0_31_213
*1027 FILLER_0_31_217
*1028 FILLER_0_31_223
*1029 FILLER_0_31_225
*1030 FILLER_0_31_233
*1031 FILLER_0_31_244
*1032 FILLER_0_31_256
*1033 FILLER_0_31_268
*1034 FILLER_0_31_27
*1035 FILLER_0_31_281
*1036 FILLER_0_31_293
*1037 FILLER_0_31_3
*1038 FILLER_0_31_305
*1039 FILLER_0_31_317
*1040 FILLER_0_31_329
*1041 FILLER_0_31_335
*1042 FILLER_0_31_337
*1043 FILLER_0_31_349
*1044 FILLER_0_31_39
*1045 FILLER_0_31_51
*1046 FILLER_0_31_55
*1047 FILLER_0_31_57
*1048 FILLER_0_31_69
*1049 FILLER_0_31_81
*1050 FILLER_0_31_93
*1051 FILLER_0_32_109
*1052 FILLER_0_32_121
*1053 FILLER_0_32_133
*1054 FILLER_0_32_139
*1055 FILLER_0_32_141
*1056 FILLER_0_32_15
*1057 FILLER_0_32_153
*1058 FILLER_0_32_165
*1059 FILLER_0_32_177
*1060 FILLER_0_32_189
*1061 FILLER_0_32_195
*1062 FILLER_0_32_222
*1063 FILLER_0_32_246
*1064 FILLER_0_32_27
*1065 FILLER_0_32_273
*1066 FILLER_0_32_285
*1067 FILLER_0_32_29
*1068 FILLER_0_32_297
*1069 FILLER_0_32_3
*1070 FILLER_0_32_305
*1071 FILLER_0_32_309
*1072 FILLER_0_32_321
*1073 FILLER_0_32_333
*1074 FILLER_0_32_345
*1075 FILLER_0_32_41
*1076 FILLER_0_32_53
*1077 FILLER_0_32_65
*1078 FILLER_0_32_77
*1079 FILLER_0_32_83
*1080 FILLER_0_32_85
*1081 FILLER_0_32_97
*1082 FILLER_0_33_105
*1083 FILLER_0_33_111
*1084 FILLER_0_33_113
*1085 FILLER_0_33_125
*1086 FILLER_0_33_137
*1087 FILLER_0_33_149
*1088 FILLER_0_33_15
*1089 FILLER_0_33_161
*1090 FILLER_0_33_167
*1091 FILLER_0_33_169
*1092 FILLER_0_33_181
*1093 FILLER_0_33_193
*1094 FILLER_0_33_205
*1095 FILLER_0_33_217
*1096 FILLER_0_33_223
*1097 FILLER_0_33_225
*1098 FILLER_0_33_252
*1099 FILLER_0_33_260
*1100 FILLER_0_33_268
*1101 FILLER_0_33_27
*1102 FILLER_0_33_281
*1103 FILLER_0_33_293
*1104 FILLER_0_33_3
*1105 FILLER_0_33_305
*1106 FILLER_0_33_317
*1107 FILLER_0_33_329
*1108 FILLER_0_33_335
*1109 FILLER_0_33_337
*1110 FILLER_0_33_349
*1111 FILLER_0_33_39
*1112 FILLER_0_33_51
*1113 FILLER_0_33_55
*1114 FILLER_0_33_57
*1115 FILLER_0_33_69
*1116 FILLER_0_33_81
*1117 FILLER_0_33_93
*1118 FILLER_0_34_109
*1119 FILLER_0_34_121
*1120 FILLER_0_34_133
*1121 FILLER_0_34_139
*1122 FILLER_0_34_141
*1123 FILLER_0_34_15
*1124 FILLER_0_34_153
*1125 FILLER_0_34_165
*1126 FILLER_0_34_177
*1127 FILLER_0_34_189
*1128 FILLER_0_34_195
*1129 FILLER_0_34_197
*1130 FILLER_0_34_205
*1131 FILLER_0_34_242
*1132 FILLER_0_34_250
*1133 FILLER_0_34_253
*1134 FILLER_0_34_257
*1135 FILLER_0_34_27
*1136 FILLER_0_34_282
*1137 FILLER_0_34_29
*1138 FILLER_0_34_294
*1139 FILLER_0_34_3
*1140 FILLER_0_34_306
*1141 FILLER_0_34_309
*1142 FILLER_0_34_321
*1143 FILLER_0_34_333
*1144 FILLER_0_34_345
*1145 FILLER_0_34_41
*1146 FILLER_0_34_53
*1147 FILLER_0_34_65
*1148 FILLER_0_34_77
*1149 FILLER_0_34_83
*1150 FILLER_0_34_85
*1151 FILLER_0_34_97
*1152 FILLER_0_35_105
*1153 FILLER_0_35_111
*1154 FILLER_0_35_113
*1155 FILLER_0_35_125
*1156 FILLER_0_35_137
*1157 FILLER_0_35_149
*1158 FILLER_0_35_15
*1159 FILLER_0_35_161
*1160 FILLER_0_35_167
*1161 FILLER_0_35_169
*1162 FILLER_0_35_178
*1163 FILLER_0_35_184
*1164 FILLER_0_35_208
*1165 FILLER_0_35_215
*1166 FILLER_0_35_225
*1167 FILLER_0_35_27
*1168 FILLER_0_35_274
*1169 FILLER_0_35_297
*1170 FILLER_0_35_3
*1171 FILLER_0_35_309
*1172 FILLER_0_35_321
*1173 FILLER_0_35_333
*1174 FILLER_0_35_337
*1175 FILLER_0_35_349
*1176 FILLER_0_35_39
*1177 FILLER_0_35_51
*1178 FILLER_0_35_55
*1179 FILLER_0_35_57
*1180 FILLER_0_35_69
*1181 FILLER_0_35_81
*1182 FILLER_0_35_93
*1183 FILLER_0_36_109
*1184 FILLER_0_36_121
*1185 FILLER_0_36_133
*1186 FILLER_0_36_139
*1187 FILLER_0_36_141
*1188 FILLER_0_36_15
*1189 FILLER_0_36_153
*1190 FILLER_0_36_165
*1191 FILLER_0_36_186
*1192 FILLER_0_36_194
*1193 FILLER_0_36_197
*1194 FILLER_0_36_205
*1195 FILLER_0_36_210
*1196 FILLER_0_36_218
*1197 FILLER_0_36_226
*1198 FILLER_0_36_238
*1199 FILLER_0_36_253
*1200 FILLER_0_36_27
*1201 FILLER_0_36_270
*1202 FILLER_0_36_282
*1203 FILLER_0_36_29
*1204 FILLER_0_36_293
*1205 FILLER_0_36_3
*1206 FILLER_0_36_305
*1207 FILLER_0_36_309
*1208 FILLER_0_36_321
*1209 FILLER_0_36_333
*1210 FILLER_0_36_345
*1211 FILLER_0_36_41
*1212 FILLER_0_36_53
*1213 FILLER_0_36_65
*1214 FILLER_0_36_77
*1215 FILLER_0_36_83
*1216 FILLER_0_36_85
*1217 FILLER_0_36_97
*1218 FILLER_0_37_105
*1219 FILLER_0_37_111
*1220 FILLER_0_37_113
*1221 FILLER_0_37_125
*1222 FILLER_0_37_137
*1223 FILLER_0_37_15
*1224 FILLER_0_37_163
*1225 FILLER_0_37_167
*1226 FILLER_0_37_169
*1227 FILLER_0_37_173
*1228 FILLER_0_37_185
*1229 FILLER_0_37_192
*1230 FILLER_0_37_199
*1231 FILLER_0_37_223
*1232 FILLER_0_37_232
*1233 FILLER_0_37_252
*1234 FILLER_0_37_258
*1235 FILLER_0_37_27
*1236 FILLER_0_37_273
*1237 FILLER_0_37_3
*1238 FILLER_0_37_300
*1239 FILLER_0_37_312
*1240 FILLER_0_37_324
*1241 FILLER_0_37_337
*1242 FILLER_0_37_349
*1243 FILLER_0_37_39
*1244 FILLER_0_37_51
*1245 FILLER_0_37_55
*1246 FILLER_0_37_57
*1247 FILLER_0_37_69
*1248 FILLER_0_37_81
*1249 FILLER_0_37_93
*1250 FILLER_0_38_102
*1251 FILLER_0_38_106
*1252 FILLER_0_38_110
*1253 FILLER_0_38_113
*1254 FILLER_0_38_118
*1255 FILLER_0_38_122
*1256 FILLER_0_38_126
*1257 FILLER_0_38_130
*1258 FILLER_0_38_134
*1259 FILLER_0_38_14
*1260 FILLER_0_38_147
*1261 FILLER_0_38_154
*1262 FILLER_0_38_158
*1263 FILLER_0_38_162
*1264 FILLER_0_38_166
*1265 FILLER_0_38_169
*1266 FILLER_0_38_174
*1267 FILLER_0_38_18
*1268 FILLER_0_38_194
*1269 FILLER_0_38_197
*1270 FILLER_0_38_211
*1271 FILLER_0_38_22
*1272 FILLER_0_38_223
*1273 FILLER_0_38_229
*1274 FILLER_0_38_241
*1275 FILLER_0_38_251
*1276 FILLER_0_38_261
*1277 FILLER_0_38_265
*1278 FILLER_0_38_278
*1279 FILLER_0_38_284
*1280 FILLER_0_38_3
*1281 FILLER_0_38_306
*1282 FILLER_0_38_312
*1283 FILLER_0_38_318
*1284 FILLER_0_38_32
*1285 FILLER_0_38_322
*1286 FILLER_0_38_329
*1287 FILLER_0_38_335
*1288 FILLER_0_38_337
*1289 FILLER_0_38_349
*1290 FILLER_0_38_38
*1291 FILLER_0_38_42
*1292 FILLER_0_38_46
*1293 FILLER_0_38_50
*1294 FILLER_0_38_54
*1295 FILLER_0_38_57
*1296 FILLER_0_38_62
*1297 FILLER_0_38_66
*1298 FILLER_0_38_70
*1299 FILLER_0_38_74
*1300 FILLER_0_38_78
*1301 FILLER_0_38_88
*1302 FILLER_0_38_94
*1303 FILLER_0_38_98
*1304 FILLER_0_3_105
*1305 FILLER_0_3_111
*1306 FILLER_0_3_113
*1307 FILLER_0_3_125
*1308 FILLER_0_3_137
*1309 FILLER_0_3_149
*1310 FILLER_0_3_15
*1311 FILLER_0_3_161
*1312 FILLER_0_3_167
*1313 FILLER_0_3_169
*1314 FILLER_0_3_181
*1315 FILLER_0_3_193
*1316 FILLER_0_3_205
*1317 FILLER_0_3_217
*1318 FILLER_0_3_223
*1319 FILLER_0_3_225
*1320 FILLER_0_3_237
*1321 FILLER_0_3_249
*1322 FILLER_0_3_261
*1323 FILLER_0_3_27
*1324 FILLER_0_3_273
*1325 FILLER_0_3_279
*1326 FILLER_0_3_281
*1327 FILLER_0_3_293
*1328 FILLER_0_3_3
*1329 FILLER_0_3_305
*1330 FILLER_0_3_317
*1331 FILLER_0_3_329
*1332 FILLER_0_3_335
*1333 FILLER_0_3_337
*1334 FILLER_0_3_349
*1335 FILLER_0_3_39
*1336 FILLER_0_3_51
*1337 FILLER_0_3_55
*1338 FILLER_0_3_57
*1339 FILLER_0_3_69
*1340 FILLER_0_3_81
*1341 FILLER_0_3_93
*1342 FILLER_0_4_109
*1343 FILLER_0_4_121
*1344 FILLER_0_4_133
*1345 FILLER_0_4_139
*1346 FILLER_0_4_141
*1347 FILLER_0_4_15
*1348 FILLER_0_4_153
*1349 FILLER_0_4_165
*1350 FILLER_0_4_177
*1351 FILLER_0_4_189
*1352 FILLER_0_4_195
*1353 FILLER_0_4_197
*1354 FILLER_0_4_209
*1355 FILLER_0_4_221
*1356 FILLER_0_4_233
*1357 FILLER_0_4_245
*1358 FILLER_0_4_251
*1359 FILLER_0_4_253
*1360 FILLER_0_4_265
*1361 FILLER_0_4_27
*1362 FILLER_0_4_277
*1363 FILLER_0_4_289
*1364 FILLER_0_4_29
*1365 FILLER_0_4_3
*1366 FILLER_0_4_301
*1367 FILLER_0_4_307
*1368 FILLER_0_4_309
*1369 FILLER_0_4_321
*1370 FILLER_0_4_333
*1371 FILLER_0_4_345
*1372 FILLER_0_4_41
*1373 FILLER_0_4_53
*1374 FILLER_0_4_65
*1375 FILLER_0_4_77
*1376 FILLER_0_4_83
*1377 FILLER_0_4_85
*1378 FILLER_0_4_97
*1379 FILLER_0_5_105
*1380 FILLER_0_5_111
*1381 FILLER_0_5_113
*1382 FILLER_0_5_125
*1383 FILLER_0_5_137
*1384 FILLER_0_5_149
*1385 FILLER_0_5_15
*1386 FILLER_0_5_161
*1387 FILLER_0_5_167
*1388 FILLER_0_5_169
*1389 FILLER_0_5_181
*1390 FILLER_0_5_193
*1391 FILLER_0_5_205
*1392 FILLER_0_5_217
*1393 FILLER_0_5_223
*1394 FILLER_0_5_225
*1395 FILLER_0_5_237
*1396 FILLER_0_5_249
*1397 FILLER_0_5_261
*1398 FILLER_0_5_27
*1399 FILLER_0_5_273
*1400 FILLER_0_5_279
*1401 FILLER_0_5_281
*1402 FILLER_0_5_293
*1403 FILLER_0_5_3
*1404 FILLER_0_5_305
*1405 FILLER_0_5_317
*1406 FILLER_0_5_329
*1407 FILLER_0_5_335
*1408 FILLER_0_5_337
*1409 FILLER_0_5_349
*1410 FILLER_0_5_39
*1411 FILLER_0_5_51
*1412 FILLER_0_5_55
*1413 FILLER_0_5_57
*1414 FILLER_0_5_69
*1415 FILLER_0_5_81
*1416 FILLER_0_5_93
*1417 FILLER_0_6_109
*1418 FILLER_0_6_121
*1419 FILLER_0_6_133
*1420 FILLER_0_6_139
*1421 FILLER_0_6_141
*1422 FILLER_0_6_15
*1423 FILLER_0_6_153
*1424 FILLER_0_6_165
*1425 FILLER_0_6_177
*1426 FILLER_0_6_189
*1427 FILLER_0_6_195
*1428 FILLER_0_6_197
*1429 FILLER_0_6_209
*1430 FILLER_0_6_221
*1431 FILLER_0_6_233
*1432 FILLER_0_6_245
*1433 FILLER_0_6_251
*1434 FILLER_0_6_253
*1435 FILLER_0_6_265
*1436 FILLER_0_6_27
*1437 FILLER_0_6_277
*1438 FILLER_0_6_289
*1439 FILLER_0_6_29
*1440 FILLER_0_6_3
*1441 FILLER_0_6_301
*1442 FILLER_0_6_307
*1443 FILLER_0_6_309
*1444 FILLER_0_6_321
*1445 FILLER_0_6_333
*1446 FILLER_0_6_345
*1447 FILLER_0_6_41
*1448 FILLER_0_6_53
*1449 FILLER_0_6_65
*1450 FILLER_0_6_77
*1451 FILLER_0_6_83
*1452 FILLER_0_6_85
*1453 FILLER_0_6_97
*1454 FILLER_0_7_105
*1455 FILLER_0_7_111
*1456 FILLER_0_7_113
*1457 FILLER_0_7_125
*1458 FILLER_0_7_137
*1459 FILLER_0_7_149
*1460 FILLER_0_7_15
*1461 FILLER_0_7_161
*1462 FILLER_0_7_167
*1463 FILLER_0_7_169
*1464 FILLER_0_7_181
*1465 FILLER_0_7_193
*1466 FILLER_0_7_205
*1467 FILLER_0_7_217
*1468 FILLER_0_7_223
*1469 FILLER_0_7_225
*1470 FILLER_0_7_237
*1471 FILLER_0_7_249
*1472 FILLER_0_7_261
*1473 FILLER_0_7_27
*1474 FILLER_0_7_273