*SPEF "ieee 1481-1999"
*DESIGN "tt_um_USM_temp_sens_hyst"
*DATE "11:11:11 Fri 11 11, 1111"
*VENDOR "OpenRCX"
*PROGRAM "Parallel Extraction"
*VERSION "1.0"
*DESIGN_FLOW "NAME_SCOPE LOCAL" "PIN_CAP NONE"
*DIVIDER /
*DELIMITER :
*BUS_DELIMITER []
*T_UNIT 1 NS
*C_UNIT 1 PF
*R_UNIT 1 OHM
*L_UNIT 1 HENRY

*NAME_MAP
*3 clk
*4 ena
*5 rst_n
*6 ui_in[0]
*7 ui_in[1]
*8 ui_in[2]
*9 ui_in[3]
*10 ui_in[4]
*11 ui_in[5]
*12 ui_in[6]
*13 ui_in[7]
*14 uio_in[0]
*15 uio_in[1]
*16 uio_in[2]
*17 uio_in[3]
*18 uio_in[4]
*19 uio_in[5]
*20 uio_in[6]
*21 uio_in[7]
*22 net17
*23 net18
*24 net19
*25 net20
*26 net21
*27 net22
*28 net23
*29 net24
*30 uio_out[0]
*31 uio_out[1]
*32 uio_out[2]
*33 uio_out[3]
*34 uio_out[4]
*35 uio_out[5]
*36 uio_out[6]
*37 uio_out[7]
*38 uo_out[0]
*39 uo_out[1]
*40 net9
*41 net10
*42 net11
*43 net12
*44 net13
*45 net14
*46 _0000_
*47 _0001_
*48 _0002_
*49 _0003_
*50 _0004_
*51 _0005_
*52 _0006_
*53 _0007_
*54 _0008_
*55 _0009_
*56 _0010_
*57 _0011_
*58 _0012_
*59 _0013_
*60 _0014_
*61 _0015_
*62 _0016_
*63 _0017_
*64 _0018_
*65 _0019_
*66 _0020_
*67 _0021_
*68 _0022_
*69 _0023_
*70 _0024_
*71 _0025_
*72 _0026_
*73 _0027_
*74 _0028_
*75 _0029_
*76 _0030_
*77 _0031_
*78 _0032_
*79 _0033_
*80 _0034_
*81 _0035_
*82 _0036_
*83 _0037_
*84 _0038_
*85 _0039_
*86 _0040_
*87 _0041_
*88 _0042_
*89 _0043_
*90 _0044_
*91 _0045_
*92 _0046_
*93 _0047_
*94 _0048_
*95 _0049_
*96 _0050_
*97 _0051_
*98 _0052_
*99 _0053_
*100 _0054_
*101 _0055_
*102 _0056_
*103 _0057_
*104 _0058_
*105 _0059_
*106 _0060_
*107 _0061_
*108 _0062_
*109 _0063_
*110 _0064_
*111 _0065_
*112 _0066_
*113 _0067_
*114 _0068_
*115 _0069_
*116 _0070_
*117 _0071_
*118 _0072_
*119 _0073_
*120 _0074_
*121 _0075_
*122 _0076_
*123 _0077_
*124 _0078_
*125 _0079_
*126 _0080_
*127 _0081_
*128 _0082_
*129 _0083_
*130 _0084_
*131 _0085_
*132 _0086_
*133 _0087_
*134 _0088_
*135 _0089_
*136 _0090_
*137 _0091_
*138 _0092_
*139 _0093_
*140 _0094_
*141 _0095_
*142 _0096_
*143 _0097_
*144 _0098_
*145 _0099_
*146 _0100_
*147 _0101_
*148 _0102_
*149 _0103_
*150 _0104_
*151 _0105_
*152 _0106_
*153 _0107_
*154 _0108_
*155 _0109_
*156 _0110_
*157 _0111_
*158 _0112_
*159 _0113_
*160 _0114_
*161 _0115_
*162 _0116_
*163 _0117_
*164 _0118_
*165 _0119_
*166 _0120_
*167 _0121_
*168 _0122_
*169 _0123_
*170 _0124_
*171 _0125_
*172 _0126_
*173 _0127_
*174 _0128_
*175 _0129_
*176 _0130_
*177 _0131_
*178 _0132_
*179 _0133_
*180 _0134_
*181 _0135_
*182 _0136_
*183 _0137_
*184 _0138_
*185 _0139_
*186 _0140_
*187 _0141_
*188 _0142_
*189 _0143_
*190 _0146_
*191 _0147_
*192 _0148_
*193 _0149_
*194 _0150_
*195 _0151_
*196 _0152_
*197 _0153_
*198 _0154_
*199 _0155_
*200 _0156_
*201 _0157_
*202 _0158_
*203 _0159_
*204 _0160_
*205 _0161_
*206 _0162_
*207 _0163_
*208 _0164_
*209 _0165_
*210 _0166_
*211 _0167_
*212 _0168_
*213 _0169_
*214 _0170_
*215 _0171_
*216 _0172_
*217 _0173_
*218 _0174_
*219 _0175_
*220 _0176_
*221 _0177_
*222 _0178_
*223 _0179_
*224 _0180_
*225 _0181_
*226 _0182_
*227 _0183_
*228 _0184_
*229 _0185_
*230 _0186_
*231 _0187_
*232 _0188_
*233 _0189_
*234 _0190_
*235 _0191_
*236 _0192_
*237 _0193_
*238 _0194_
*239 _0195_
*240 _0196_
*241 _0197_
*242 _0198_
*243 _0199_
*244 _0200_
*245 _0201_
*246 _0202_
*247 _0203_
*248 _0204_
*249 _0205_
*250 _0206_
*251 _0207_
*252 _0208_
*253 _0209_
*254 _0210_
*255 _0211_
*256 _0212_
*257 _0213_
*258 _0214_
*259 _0215_
*260 _0216_
*261 _0217_
*262 _0218_
*263 _0219_
*264 _0220_
*265 _0221_
*266 _0222_
*267 _0223_
*268 _0224_
*269 _0225_
*270 _0226_
*271 _0227_
*272 _0228_
*273 _0229_
*274 _0230_
*275 _0231_
*276 _0232_
*277 _0233_
*278 _0234_
*279 _0235_
*280 _0236_
*281 _0237_
*282 _0238_
*283 _0239_
*284 _0240_
*285 _0241_
*286 _0242_
*287 _0243_
*288 _0244_
*289 _0245_
*290 _0246_
*291 _0247_
*292 _0248_
*293 _0249_
*294 _0250_
*295 _0251_
*296 _0252_
*297 _0253_
*298 _0254_
*299 _0255_
*300 _0256_
*301 _0257_
*302 _0258_
*303 _0259_
*304 _0260_
*305 _0261_
*306 _0262_
*307 _0263_
*308 _0264_
*309 _0265_
*310 _0266_
*311 _0267_
*312 _0268_
*313 _0269_
*314 _0270_
*315 _0271_
*316 _0272_
*317 _0273_
*318 _0274_
*319 _0275_
*320 _0276_
*321 _0277_
*322 _0278_
*323 _0279_
*324 _0280_
*325 _0281_
*326 _0282_
*327 _0283_
*328 _0284_
*329 _0285_
*330 _0286_
*331 _0287_
*332 _0288_
*333 _0289_
*334 _0290_
*335 _0291_
*336 _0292_
*337 _0293_
*338 _0294_
*339 _0295_
*340 _0296_
*341 _0297_
*342 _0298_
*343 _0299_
*344 _0300_
*345 _0301_
*346 _0302_
*347 _0303_
*348 _0304_
*349 _0305_
*350 _0306_
*351 _0307_
*352 _0308_
*353 _0309_
*354 _0310_
*355 _0311_
*356 _0312_
*357 _0313_
*358 _0314_
*359 _0315_
*360 _0316_
*361 _0317_
*362 _0318_
*363 _0319_
*364 _0320_
*365 _0321_
*366 _0322_
*367 _0323_
*368 _0324_
*369 _0325_
*370 _0326_
*371 _0327_
*372 _0328_
*373 _0329_
*374 _0330_
*375 _0331_
*376 _0332_
*377 _0333_
*378 _0334_
*379 _0335_
*380 _0336_
*381 _0337_
*382 _0338_
*383 _0339_
*384 _0340_
*385 _0341_
*386 _0342_
*387 _0343_
*388 _0344_
*389 _0345_
*390 _0346_
*391 _0347_
*392 _0348_
*393 _0349_
*394 _0350_
*395 _0351_
*396 _0352_
*397 _0353_
*398 _0354_
*399 _0355_
*400 _0356_
*401 _0357_
*402 _0358_
*403 _0359_
*404 _0360_
*405 _0361_
*406 _0362_
*407 _0363_
*408 _0364_
*409 _0365_
*410 _0366_
*411 _0367_
*412 _0368_
*413 _0369_
*414 _0370_
*415 _0371_
*416 _0372_
*417 _0373_
*418 _0374_
*419 _0375_
*420 _0376_
*421 _0377_
*422 _0378_
*423 _0379_
*424 _0380_
*425 _0381_
*426 _0382_
*427 _0383_
*428 _0384_
*429 _0385_
*430 _0386_
*431 _0387_
*432 _0388_
*433 _0389_
*434 _0390_
*435 _0391_
*436 _0392_
*437 _0393_
*438 _0394_
*439 _0395_
*440 _0396_
*441 _0397_
*442 _0398_
*443 _0399_
*444 _0400_
*445 _0401_
*446 _0402_
*447 _0403_
*448 _0404_
*449 _0405_
*450 _0406_
*451 _0407_
*452 _0408_
*453 _0409_
*454 _0410_
*455 _0411_
*456 _0412_
*457 _0413_
*458 _0414_
*459 _0415_
*460 _0416_
*461 _0417_
*462 _0418_
*463 _0419_
*464 _0420_
*465 _0421_
*466 _0422_
*467 _0423_
*468 _0424_
*469 _0425_
*470 _0426_
*471 _0427_
*472 _0428_
*473 _0429_
*474 _0430_
*475 _0431_
*476 _0432_
*477 _0433_
*478 _0434_
*479 _0435_
*480 _0436_
*481 _0437_
*482 _0438_
*483 _0439_
*484 _0440_
*485 _0441_
*486 _0442_
*487 _0443_
*488 _0444_
*489 _0445_
*490 _0446_
*491 _0447_
*492 _0448_
*493 _0449_
*494 _0450_
*495 _0451_
*496 _0452_
*497 _0453_
*498 _0454_
*499 _0455_
*500 _0456_
*501 _0457_
*502 _0458_
*503 _0459_
*504 _0460_
*505 _0461_
*506 _0462_
*507 _0463_
*508 _0464_
*509 _0465_
*510 _0466_
*511 _0467_
*512 _0468_
*513 _0469_
*514 _0470_
*515 _0471_
*516 _0472_
*517 _0473_
*518 _0474_
*519 _0475_
*520 _0476_
*521 _0477_
*522 _0478_
*523 _0479_
*524 _0480_
*525 _0481_
*526 _0482_
*527 _0483_
*528 _0484_
*529 _0485_
*530 _0486_
*531 _0487_
*532 _0488_
*533 _0489_
*534 _0490_
*535 _0491_
*536 _0492_
*537 _0493_
*538 _0494_
*539 _0495_
*540 _0496_
*541 _0497_
*542 _0498_
*543 _0499_
*544 _0500_
*545 _0501_
*546 _0502_
*547 _0503_
*548 _0504_
*549 _0505_
*550 _0506_
*551 _0507_
*552 _0508_
*553 _0509_
*554 _0510_
*555 _0511_
*556 _0512_
*557 _0513_
*558 _0514_
*559 _0515_
*560 _0516_
*561 _0517_
*562 _0518_
*563 _0519_
*564 _0520_
*565 _0521_
*566 _0522_
*567 _0523_
*568 _0524_
*569 _0525_
*570 _0526_
*571 _0527_
*572 _0528_
*573 _0529_
*574 _0530_
*575 clknet_0__0234_
*576 clknet_0__0235_
*577 clknet_0__0236_
*578 clknet_0__0237_
*579 clknet_0__0248_
*580 clknet_0__0259_
*581 clknet_0_cont\.clk
*582 clknet_1_0__leaf__0234_
*583 clknet_1_0__leaf__0235_
*584 clknet_1_0__leaf__0236_
*585 clknet_1_0__leaf__0237_
*586 clknet_1_0__leaf__0248_
*587 clknet_1_0__leaf__0259_
*588 clknet_1_1__leaf__0234_
*589 clknet_1_1__leaf__0235_
*590 clknet_1_1__leaf__0236_
*591 clknet_1_1__leaf__0237_
*592 clknet_1_1__leaf__0248_
*593 clknet_1_1__leaf__0259_
*594 clknet_4_0_0_cont\.clk
*595 clknet_4_10_0_cont\.clk
*596 clknet_4_11_0_cont\.clk
*597 clknet_4_12_0_cont\.clk
*598 clknet_4_13_0_cont\.clk
*599 clknet_4_14_0_cont\.clk
*600 clknet_4_15_0_cont\.clk
*601 clknet_4_1_0_cont\.clk
*602 clknet_4_2_0_cont\.clk
*603 clknet_4_3_0_cont\.clk
*604 clknet_4_4_0_cont\.clk
*605 clknet_4_5_0_cont\.clk
*606 clknet_4_6_0_cont\.clk
*607 clknet_4_7_0_cont\.clk
*608 clknet_4_8_0_cont\.clk
*609 clknet_4_9_0_cont\.clk
*610 cont\.aux
*611 cont\.clk
*612 cont\.count\[0\]
*613 cont\.count\[1\]
*614 cont\.count\[2\]
*615 cont\.count\[3\]
*616 cont\.count\[4\]
*617 cont\.count\[5\]
*618 cont\.count\[6\]
*619 cont\.count\[7\]
*620 cont\.count\[8\]
*621 cont\.count\[9\]
*622 cont\.osc_clk
*623 controller\.en_reg1
*624 controller\.en_reg2
*625 controller\.en_send
*626 controller\.rx_data\[0\]
*627 controller\.rx_data\[1\]
*628 controller\.rx_data\[2\]
*629 controller\.rx_data\[3\]
*630 controller\.rx_data\[4\]
*631 controller\.rx_data\[5\]
*632 controller\.rx_data\[6\]
*633 controller\.rx_data\[7\]
*634 controller\.rx_ready
*635 controller\.state\[0\]
*636 controller\.state\[4\]
*637 controller\.state\[5\]
*638 controller\.state\[6\]
*639 hysteresis\.state
*640 hysteresis\.temp_average\[0\]
*641 hysteresis\.temp_average\[1\]
*642 hysteresis\.temp_average\[2\]
*643 hysteresis\.temp_average\[3\]
*644 hysteresis\.temp_average\[4\]
*645 hysteresis\.temp_average\[5\]
*646 hysteresis\.temp_average\[6\]
*647 hysteresis\.temp_average\[7\]
*648 hysteresis\.temp_high\[0\]
*649 hysteresis\.temp_high\[1\]
*650 hysteresis\.temp_high\[2\]
*651 hysteresis\.temp_high\[3\]
*652 hysteresis\.temp_high\[4\]
*653 hysteresis\.temp_high\[5\]
*654 hysteresis\.temp_high\[6\]
*655 hysteresis\.temp_high\[7\]
*656 hysteresis\.temp_low\[0\]
*657 hysteresis\.temp_low\[1\]
*658 hysteresis\.temp_low\[2\]
*659 hysteresis\.temp_low\[3\]
*660 hysteresis\.temp_low\[4\]
*661 hysteresis\.temp_low\[5\]
*662 hysteresis\.temp_low\[6\]
*663 hysteresis\.temp_low\[7\]
*664 m2\.a
*665 m2\.b
*666 net1
*667 net100
*668 net101
*669 net102
*670 net103
*671 net104
*672 net105
*673 net106
*674 net107
*675 net108
*676 net109
*677 net110
*678 net111
*679 net112
*680 net113
*681 net114
*682 net115
*683 net116
*684 net117
*685 net118
*686 net119
*687 net120
*688 net121
*689 net15
*690 net16
*691 net2
*692 net25
*693 net26
*694 net27
*695 net28
*696 net29
*697 net3
*698 net30
*699 net31
*700 net32
*701 net33
*702 net34
*703 net35
*704 net36
*705 net37
*706 net38
*707 net39
*708 net4
*709 net40
*710 net41
*711 net42
*712 net43
*713 net44
*714 net45
*715 net46
*716 net47
*717 net48
*718 net49
*719 net5
*720 net50
*721 net51
*722 net52
*723 net53
*724 net54
*725 net55
*726 net56
*727 net57
*728 net58
*729 net59
*730 net6
*731 net60
*732 net61
*733 net62
*734 net63
*735 net64
*736 net65
*737 net66
*738 net67
*739 net68
*740 net69
*741 net7
*742 net70
*743 net71
*744 net72
*745 net73
*746 net74
*747 net75
*748 net76
*749 net77
*750 net78
*751 net79
*752 net8
*753 net80
*754 net81
*755 net82
*756 net83
*757 net84
*758 net85
*759 net86
*760 net87
*761 net88
*762 net89
*763 net90
*764 net91
*765 net92
*766 net93
*767 net94
*768 net95
*769 net96
*770 net97
*771 net98
*772 net99
*773 osc1\.aux_wire\[0\]
*774 osc1\.aux_wire\[10\]
*775 osc1\.aux_wire\[11\]
*776 osc1\.aux_wire\[12\]
*777 osc1\.aux_wire\[13\]
*778 osc1\.aux_wire\[14\]
*779 osc1\.aux_wire\[15\]
*780 osc1\.aux_wire\[16\]
*781 osc1\.aux_wire\[17\]
*782 osc1\.aux_wire\[18\]
*783 osc1\.aux_wire\[19\]
*784 osc1\.aux_wire\[1\]
*785 osc1\.aux_wire\[20\]
*786 osc1\.aux_wire\[21\]
*787 osc1\.aux_wire\[22\]
*788 osc1\.aux_wire\[23\]
*789 osc1\.aux_wire\[24\]
*790 osc1\.aux_wire\[25\]
*791 osc1\.aux_wire\[26\]
*792 osc1\.aux_wire\[27\]
*793 osc1\.aux_wire\[28\]
*794 osc1\.aux_wire\[29\]
*795 osc1\.aux_wire\[2\]
*796 osc1\.aux_wire\[30\]
*797 osc1\.aux_wire\[31\]
*798 osc1\.aux_wire\[32\]
*799 osc1\.aux_wire\[33\]
*800 osc1\.aux_wire\[34\]
*801 osc1\.aux_wire\[35\]
*802 osc1\.aux_wire\[36\]
*803 osc1\.aux_wire\[37\]
*804 osc1\.aux_wire\[38\]
*805 osc1\.aux_wire\[39\]
*806 osc1\.aux_wire\[3\]
*807 osc1\.aux_wire\[40\]
*808 osc1\.aux_wire\[41\]
*809 osc1\.aux_wire\[42\]
*810 osc1\.aux_wire\[43\]
*811 osc1\.aux_wire\[44\]
*812 osc1\.aux_wire\[45\]
*813 osc1\.aux_wire\[46\]
*814 osc1\.aux_wire\[47\]
*815 osc1\.aux_wire\[48\]
*816 osc1\.aux_wire\[49\]
*817 osc1\.aux_wire\[4\]
*818 osc1\.aux_wire\[50\]
*819 osc1\.aux_wire\[51\]
*820 osc1\.aux_wire\[52\]
*821 osc1\.aux_wire\[53\]
*822 osc1\.aux_wire\[54\]
*823 osc1\.aux_wire\[55\]
*824 osc1\.aux_wire\[56\]
*825 osc1\.aux_wire\[57\]
*826 osc1\.aux_wire\[58\]
*827 osc1\.aux_wire\[59\]
*828 osc1\.aux_wire\[5\]
*829 osc1\.aux_wire\[60\]
*830 osc1\.aux_wire\[61\]
*831 osc1\.aux_wire\[62\]
*832 osc1\.aux_wire\[63\]
*833 osc1\.aux_wire\[64\]
*834 osc1\.aux_wire\[65\]
*835 osc1\.aux_wire\[66\]
*836 osc1\.aux_wire\[67\]
*837 osc1\.aux_wire\[68\]
*838 osc1\.aux_wire\[69\]
*839 osc1\.aux_wire\[6\]
*840 osc1\.aux_wire\[70\]
*841 osc1\.aux_wire\[71\]
*842 osc1\.aux_wire\[72\]
*843 osc1\.aux_wire\[73\]
*844 osc1\.aux_wire\[74\]
*845 osc1\.aux_wire\[75\]
*846 osc1\.aux_wire\[76\]
*847 osc1\.aux_wire\[77\]
*848 osc1\.aux_wire\[78\]
*849 osc1\.aux_wire\[79\]
*850 osc1\.aux_wire\[7\]
*851 osc1\.aux_wire\[80\]
*852 osc1\.aux_wire\[81\]
*853 osc1\.aux_wire\[82\]
*854 osc1\.aux_wire\[83\]
*855 osc1\.aux_wire\[84\]
*856 osc1\.aux_wire\[85\]
*857 osc1\.aux_wire\[86\]
*858 osc1\.aux_wire\[87\]
*859 osc1\.aux_wire\[88\]
*860 osc1\.aux_wire\[89\]
*861 osc1\.aux_wire\[8\]
*862 osc1\.aux_wire\[90\]
*863 osc1\.aux_wire\[91\]
*864 osc1\.aux_wire\[92\]
*865 osc1\.aux_wire\[93\]
*866 osc1\.aux_wire\[94\]
*867 osc1\.aux_wire\[95\]
*868 osc1\.aux_wire\[96\]
*869 osc1\.aux_wire\[97\]
*870 osc1\.aux_wire\[98\]
*871 osc1\.aux_wire\[9\]
*872 osc2\.aux_wire\[0\]
*873 osc2\.aux_wire\[10\]
*874 osc2\.aux_wire\[11\]
*875 osc2\.aux_wire\[12\]
*876 osc2\.aux_wire\[13\]
*877 osc2\.aux_wire\[14\]
*878 osc2\.aux_wire\[15\]
*879 osc2\.aux_wire\[16\]
*880 osc2\.aux_wire\[17\]
*881 osc2\.aux_wire\[18\]
*882 osc2\.aux_wire\[19\]
*883 osc2\.aux_wire\[1\]
*884 osc2\.aux_wire\[20\]
*885 osc2\.aux_wire\[21\]
*886 osc2\.aux_wire\[22\]
*887 osc2\.aux_wire\[23\]
*888 osc2\.aux_wire\[24\]
*889 osc2\.aux_wire\[25\]
*890 osc2\.aux_wire\[26\]
*891 osc2\.aux_wire\[27\]
*892 osc2\.aux_wire\[28\]
*893 osc2\.aux_wire\[29\]
*894 osc2\.aux_wire\[2\]
*895 osc2\.aux_wire\[30\]
*896 osc2\.aux_wire\[31\]
*897 osc2\.aux_wire\[32\]
*898 osc2\.aux_wire\[3\]
*899 osc2\.aux_wire\[4\]
*900 osc2\.aux_wire\[5\]
*901 osc2\.aux_wire\[6\]
*902 osc2\.aux_wire\[7\]
*903 osc2\.aux_wire\[8\]
*904 osc2\.aux_wire\[9\]
*905 prom\.contador\[0\]
*906 prom\.contador\[1\]
*907 prom\.contador\[2\]
*908 prom\.contador\[3\]
*909 prom\.contador\[4\]
*910 prom\.sum_ready
*911 prom\.suma\[0\]
*912 prom\.suma\[1\]
*913 prom\.suma\[2\]
*914 prom\.suma\[3\]
*915 prom\.suma\[4\]
*916 prom\.suma\[5\]
*917 prom\.suma\[6\]
*918 prom\.suma\[7\]
*919 prom\.suma\[8\]
*920 prom\.suma\[9\]
*921 sendData\.state\[0\]
*922 sendData\.state\[1\]
*923 sendData\.state\[2\]
*924 sendData\.state\[3\]
*925 sendData\.timer\[0\]
*926 sendData\.timer\[10\]
*927 sendData\.timer\[11\]
*928 sendData\.timer\[12\]
*929 sendData\.timer\[13\]
*930 sendData\.timer\[14\]
*931 sendData\.timer\[15\]
*932 sendData\.timer\[1\]
*933 sendData\.timer\[2\]
*934 sendData\.timer\[3\]
*935 sendData\.timer\[4\]
*936 sendData\.timer\[5\]
*937 sendData\.timer\[6\]
*938 sendData\.timer\[7\]
*939 sendData\.timer\[8\]
*940 sendData\.timer\[9\]
*941 uart\.baud8_tick
*942 uart\.baud8_tick_blk\.acc\[0\]
*943 uart\.baud8_tick_blk\.acc\[10\]
*944 uart\.baud8_tick_blk\.acc\[11\]
*945 uart\.baud8_tick_blk\.acc\[1\]
*946 uart\.baud8_tick_blk\.acc\[2\]
*947 uart\.baud8_tick_blk\.acc\[3\]
*948 uart\.baud8_tick_blk\.acc\[4\]
*949 uart\.baud8_tick_blk\.acc\[5\]
*950 uart\.baud8_tick_blk\.acc\[6\]
*951 uart\.baud8_tick_blk\.acc\[7\]
*952 uart\.baud8_tick_blk\.acc\[8\]
*953 uart\.baud8_tick_blk\.acc\[9\]
*954 uart\.baud_tick
*955 uart\.baud_tick_blk\.acc\[10\]
*956 uart\.baud_tick_blk\.acc\[11\]
*957 uart\.baud_tick_blk\.acc\[1\]
*958 uart\.baud_tick_blk\.acc\[2\]
*959 uart\.baud_tick_blk\.acc\[3\]
*960 uart\.baud_tick_blk\.acc\[4\]
*961 uart\.baud_tick_blk\.acc\[5\]
*962 uart\.baud_tick_blk\.acc\[6\]
*963 uart\.baud_tick_blk\.acc\[7\]
*964 uart\.baud_tick_blk\.acc\[8\]
*965 uart\.baud_tick_blk\.acc\[9\]
*966 uart\.rx_ready_pre
*967 uart\.rx_ready_sync
*968 uart\.tx
*969 uart\.uart_rx_blk\.bit_counter\[0\]
*970 uart\.uart_rx_blk\.bit_counter\[1\]
*971 uart\.uart_rx_blk\.bit_counter\[2\]
*972 uart\.uart_rx_blk\.rx_bit
*973 uart\.uart_rx_blk\.rx_sync_inst\.in_sync
*974 uart\.uart_rx_blk\.rx_sync_inst\.in_sync_sr\[1\]
*975 uart\.uart_rx_blk\.rx_sync_inst\.sync_counter\[0\]
*976 uart\.uart_rx_blk\.rx_sync_inst\.sync_counter\[1\]
*977 uart\.uart_rx_blk\.spacing_counter\[0\]
*978 uart\.uart_rx_blk\.spacing_counter\[1\]
*979 uart\.uart_rx_blk\.spacing_counter\[2\]
*980 uart\.uart_rx_blk\.state\[0\]
*981 uart\.uart_rx_blk\.state\[1\]
*982 uart\.uart_rx_blk\.state\[2\]
*983 uart\.uart_tx_blk\.counter\[0\]
*984 uart\.uart_tx_blk\.counter\[1\]
*985 uart\.uart_tx_blk\.counter\[2\]
*986 uart\.uart_tx_blk\.state\[0\]
*987 uart\.uart_tx_blk\.state\[1\]
*988 uart\.uart_tx_blk\.tx_data_reg\[0\]
*989 uart\.uart_tx_blk\.tx_data_reg\[1\]
*990 uart\.uart_tx_blk\.tx_data_reg\[2\]
*991 uart\.uart_tx_blk\.tx_data_reg\[3\]
*992 uart\.uart_tx_blk\.tx_data_reg\[4\]
*993 uart\.uart_tx_blk\.tx_data_reg\[5\]
*994 uart\.uart_tx_blk\.tx_data_reg\[6\]
*995 uart\.uart_tx_blk\.tx_data_reg\[7\]
*996 FILLER_0_0_109
*997 FILLER_0_0_113
*998 FILLER_0_0_121
*999 FILLER_0_0_138
*1000 FILLER_0_0_15
*1001 FILLER_0_0_155
*1002 FILLER_0_0_167
*1003 FILLER_0_0_169
*1004 FILLER_0_0_189
*1005 FILLER_0_0_195
*1006 FILLER_0_0_197
*1007 FILLER_0_0_209
*1008 FILLER_0_0_223
*1009 FILLER_0_0_228
*1010 FILLER_0_0_240
*1011 FILLER_0_0_253
*1012 FILLER_0_0_265
*1013 FILLER_0_0_27
*1014 FILLER_0_0_277
*1015 FILLER_0_0_281
*1016 FILLER_0_0_29
*1017 FILLER_0_0_293
*1018 FILLER_0_0_3
*1019 FILLER_0_0_305
*1020 FILLER_0_0_309
*1021 FILLER_0_0_321
*1022 FILLER_0_0_333
*1023 FILLER_0_0_337
*1024 FILLER_0_0_349
*1025 FILLER_0_0_41
*1026 FILLER_0_0_53
*1027 FILLER_0_0_57
*1028 FILLER_0_0_69
*1029 FILLER_0_0_81
*1030 FILLER_0_0_85
*1031 FILLER_0_0_97
*1032 FILLER_0_10_101
*1033 FILLER_0_10_141
*1034 FILLER_0_10_15
*1035 FILLER_0_10_173
*1036 FILLER_0_10_181
*1037 FILLER_0_10_195
*1038 FILLER_0_10_197
*1039 FILLER_0_10_209
*1040 FILLER_0_10_217
*1041 FILLER_0_10_258
*1042 FILLER_0_10_27
*1043 FILLER_0_10_29
*1044 FILLER_0_10_298
*1045 FILLER_0_10_3
*1046 FILLER_0_10_302
*1047 FILLER_0_10_309
*1048 FILLER_0_10_315
*1049 FILLER_0_10_320
*1050 FILLER_0_10_340
*1051 FILLER_0_10_348
*1052 FILLER_0_10_41
*1053 FILLER_0_10_53
*1054 FILLER_0_10_79
*1055 FILLER_0_10_83
*1056 FILLER_0_10_85
*1057 FILLER_0_10_97
*1058 FILLER_0_11_109
*1059 FILLER_0_11_113
*1060 FILLER_0_11_125
*1061 FILLER_0_11_129
*1062 FILLER_0_11_135
*1063 FILLER_0_11_15
*1064 FILLER_0_11_167
*1065 FILLER_0_11_169
*1066 FILLER_0_11_188
*1067 FILLER_0_11_241
*1068 FILLER_0_11_253
*1069 FILLER_0_11_263
*1070 FILLER_0_11_27
*1071 FILLER_0_11_287
*1072 FILLER_0_11_3
*1073 FILLER_0_11_303
*1074 FILLER_0_11_311
*1075 FILLER_0_11_335
*1076 FILLER_0_11_337
*1077 FILLER_0_11_39
*1078 FILLER_0_11_47
*1079 FILLER_0_11_57
*1080 FILLER_0_11_83
*1081 FILLER_0_11_95
*1082 FILLER_0_12_121
*1083 FILLER_0_12_133
*1084 FILLER_0_12_139
*1085 FILLER_0_12_15
*1086 FILLER_0_12_152
*1087 FILLER_0_12_162
*1088 FILLER_0_12_195
*1089 FILLER_0_12_208
*1090 FILLER_0_12_245
*1091 FILLER_0_12_251
*1092 FILLER_0_12_27
*1093 FILLER_0_12_270
*1094 FILLER_0_12_274
*1095 FILLER_0_12_29
*1096 FILLER_0_12_294
*1097 FILLER_0_12_3
*1098 FILLER_0_12_306
*1099 FILLER_0_12_309
*1100 FILLER_0_12_335
*1101 FILLER_0_12_350
*1102 FILLER_0_12_37
*1103 FILLER_0_12_81
*1104 FILLER_0_12_85
*1105 FILLER_0_12_91
*1106 FILLER_0_13_105
*1107 FILLER_0_13_118
*1108 FILLER_0_13_141
*1109 FILLER_0_13_15
*1110 FILLER_0_13_153
*1111 FILLER_0_13_165
*1112 FILLER_0_13_169
*1113 FILLER_0_13_204
*1114 FILLER_0_13_216
*1115 FILLER_0_13_242
*1116 FILLER_0_13_254
*1117 FILLER_0_13_27
*1118 FILLER_0_13_279
*1119 FILLER_0_13_287
*1120 FILLER_0_13_299
*1121 FILLER_0_13_3
*1122 FILLER_0_13_331
*1123 FILLER_0_13_335
*1124 FILLER_0_13_337
*1125 FILLER_0_13_349
*1126 FILLER_0_13_39
*1127 FILLER_0_13_51
*1128 FILLER_0_13_57
*1129 FILLER_0_13_88
*1130 FILLER_0_14_118
*1131 FILLER_0_14_135
*1132 FILLER_0_14_139
*1133 FILLER_0_14_141
*1134 FILLER_0_14_15
*1135 FILLER_0_14_161
*1136 FILLER_0_14_208
*1137 FILLER_0_14_212
*1138 FILLER_0_14_221
*1139 FILLER_0_14_233
*1140 FILLER_0_14_240
*1141 FILLER_0_14_253
*1142 FILLER_0_14_27
*1143 FILLER_0_14_280
*1144 FILLER_0_14_286
*1145 FILLER_0_14_298
*1146 FILLER_0_14_3
*1147 FILLER_0_14_306
*1148 FILLER_0_14_309
*1149 FILLER_0_14_336
*1150 FILLER_0_14_348
*1151 FILLER_0_14_45
*1152 FILLER_0_14_53
*1153 FILLER_0_14_63
*1154 FILLER_0_14_79
*1155 FILLER_0_14_83
*1156 FILLER_0_14_85
*1157 FILLER_0_15_111
*1158 FILLER_0_15_142
*1159 FILLER_0_15_15
*1160 FILLER_0_15_154
*1161 FILLER_0_15_165
*1162 FILLER_0_15_174
*1163 FILLER_0_15_182
*1164 FILLER_0_15_197
*1165 FILLER_0_15_205
*1166 FILLER_0_15_223
*1167 FILLER_0_15_225
*1168 FILLER_0_15_243
*1169 FILLER_0_15_251
*1170 FILLER_0_15_265
*1171 FILLER_0_15_27
*1172 FILLER_0_15_271
*1173 FILLER_0_15_276
*1174 FILLER_0_15_285
*1175 FILLER_0_15_297
*1176 FILLER_0_15_3
*1177 FILLER_0_15_315
*1178 FILLER_0_15_327
*1179 FILLER_0_15_335
*1180 FILLER_0_15_337
*1181 FILLER_0_15_349
*1182 FILLER_0_15_39
*1183 FILLER_0_15_60
*1184 FILLER_0_15_82
*1185 FILLER_0_16_114
*1186 FILLER_0_16_120
*1187 FILLER_0_16_126
*1188 FILLER_0_16_136
*1189 FILLER_0_16_141
*1190 FILLER_0_16_15
*1191 FILLER_0_16_150
*1192 FILLER_0_16_171
*1193 FILLER_0_16_195
*1194 FILLER_0_16_206
*1195 FILLER_0_16_217
*1196 FILLER_0_16_259
*1197 FILLER_0_16_26
*1198 FILLER_0_16_271
*1199 FILLER_0_16_298
*1200 FILLER_0_16_3
*1201 FILLER_0_16_307
*1202 FILLER_0_16_317
*1203 FILLER_0_16_325
*1204 FILLER_0_16_342
*1205 FILLER_0_16_350
*1206 FILLER_0_16_76
*1207 FILLER_0_16_85
*1208 FILLER_0_16_97
*1209 FILLER_0_17_107
*1210 FILLER_0_17_111
*1211 FILLER_0_17_113
*1212 FILLER_0_17_121
*1213 FILLER_0_17_125
*1214 FILLER_0_17_137
*1215 FILLER_0_17_141
*1216 FILLER_0_17_152
*1217 FILLER_0_17_165
*1218 FILLER_0_17_209
*1219 FILLER_0_17_221
*1220 FILLER_0_17_225
*1221 FILLER_0_17_229
*1222 FILLER_0_17_260
*1223 FILLER_0_17_268
*1224 FILLER_0_17_281
*1225 FILLER_0_17_3
*1226 FILLER_0_17_315
*1227 FILLER_0_17_327
*1228 FILLER_0_17_335
*1229 FILLER_0_17_348
*1230 FILLER_0_17_46
*1231 FILLER_0_17_50
*1232 FILLER_0_17_54
*1233 FILLER_0_17_71
*1234 FILLER_0_17_83
*1235 FILLER_0_17_91
*1236 FILLER_0_18_112
*1237 FILLER_0_18_135
*1238 FILLER_0_18_139
*1239 FILLER_0_18_141
*1240 FILLER_0_18_15
*1241 FILLER_0_18_153
*1242 FILLER_0_18_165
*1243 FILLER_0_18_182
*1244 FILLER_0_18_195
*1245 FILLER_0_18_213
*1246 FILLER_0_18_251
*1247 FILLER_0_18_269
*1248 FILLER_0_18_277
*1249 FILLER_0_18_3
*1250 FILLER_0_18_301
*1251 FILLER_0_18_307
*1252 FILLER_0_18_317
*1253 FILLER_0_18_345
*1254 FILLER_0_18_36
*1255 FILLER_0_18_48
*1256 FILLER_0_18_60
*1257 FILLER_0_18_64
*1258 FILLER_0_18_75
*1259 FILLER_0_18_85
*1260 FILLER_0_19_102
*1261 FILLER_0_19_113
*1262 FILLER_0_19_149
*1263 FILLER_0_19_15
*1264 FILLER_0_19_161
*1265 FILLER_0_19_167
*1266 FILLER_0_19_169
*1267 FILLER_0_19_189
*1268 FILLER_0_19_201
*1269 FILLER_0_19_213
*1270 FILLER_0_19_221
*1271 FILLER_0_19_225
*1272 FILLER_0_19_255
*1273 FILLER_0_19_267
*1274 FILLER_0_19_279
*1275 FILLER_0_19_281
*1276 FILLER_0_19_293
*1277 FILLER_0_19_3
*1278 FILLER_0_19_305
*1279 FILLER_0_19_317
*1280 FILLER_0_19_324
*1281 FILLER_0_19_337
*1282 FILLER_0_19_349
*1283 FILLER_0_19_35
*1284 FILLER_0_19_47
*1285 FILLER_0_19_55
*1286 FILLER_0_19_57
*1287 FILLER_0_19_68
*1288 FILLER_0_19_81
*1289 FILLER_0_19_94
*1290 FILLER_0_1_105
*1291 FILLER_0_1_111
*1292 FILLER_0_1_113
*1293 FILLER_0_1_125
*1294 FILLER_0_1_142
*1295 FILLER_0_1_15
*1296 FILLER_0_1_158
*1297 FILLER_0_1_166
*1298 FILLER_0_1_169
*1299 FILLER_0_1_195
*1300 FILLER_0_1_207
*1301 FILLER_0_1_241
*1302 FILLER_0_1_253
*1303 FILLER_0_1_265
*1304 FILLER_0_1_27
*1305 FILLER_0_1_277
*1306 FILLER_0_1_281
*1307 FILLER_0_1_293
*1308 FILLER_0_1_3
*1309 FILLER_0_1_305
*1310 FILLER_0_1_317
*1311 FILLER_0_1_329
*1312 FILLER_0_1_335
*1313 FILLER_0_1_337
*1314 FILLER_0_1_349
*1315 FILLER_0_1_39
*1316 FILLER_0_1_51
*1317 FILLER_0_1_55
*1318 FILLER_0_1_57
*1319 FILLER_0_1_69
*1320 FILLER_0_1_81
*1321 FILLER_0_1_93
*1322 FILLER_0_20_109
*1323 FILLER_0_20_11
*1324 FILLER_0_20_156
*1325 FILLER_0_20_173
*1326 FILLER_0_20_197
*1327 FILLER_0_20_209
*1328 FILLER_0_20_220
*1329 FILLER_0_20_232
*1330 FILLER_0_20_244
*1331 FILLER_0_20_261
*1332 FILLER_0_20_281
*1333 FILLER_0_20_289
*1334 FILLER_0_20_298
*1335 FILLER_0_20_3
*1336 FILLER_0_20_306
*1337 FILLER_0_20_309
*1338 FILLER_0_20_313
*1339 FILLER_0_20_342
*1340 FILLER_0_20_350
*1341 FILLER_0_20_36
*1342 FILLER_0_20_44
*1343 FILLER_0_20_83
*1344 FILLER_0_20_85
*1345 FILLER_0_20_98
*1346 FILLER_0_21_102
*1347 FILLER_0_21_106
*1348 FILLER_0_21_11
*1349 FILLER_0_21_110
*1350 FILLER_0_21_129
*1351 FILLER_0_21_138
*1352 FILLER_0_21_142
*1353 FILLER_0_21_153
*1354 FILLER_0_21_165
*1355 FILLER_0_21_193
*1356 FILLER_0_21_210
*1357 FILLER_0_21_221
*1358 FILLER_0_21_230
*1359 FILLER_0_21_242
*1360 FILLER_0_21_250
*1361 FILLER_0_21_269
*1362 FILLER_0_21_275
*1363 FILLER_0_21_279
*1364 FILLER_0_21_281
*1365 FILLER_0_21_3
*1366 FILLER_0_21_311
*1367 FILLER_0_21_333
*1368 FILLER_0_21_341
*1369 FILLER_0_21_350
*1370 FILLER_0_21_46
*1371 FILLER_0_21_52
*1372 FILLER_0_21_57
*1373 FILLER_0_21_65
*1374 FILLER_0_21_90
*1375 FILLER_0_22_104
*1376 FILLER_0_22_11
*1377 FILLER_0_22_116
*1378 FILLER_0_22_120
*1379 FILLER_0_22_129
*1380 FILLER_0_22_138
*1381 FILLER_0_22_141
*1382 FILLER_0_22_153
*1383 FILLER_0_22_168
*1384 FILLER_0_22_182
*1385 FILLER_0_22_273
*1386 FILLER_0_22_281
*1387 FILLER_0_22_29
*1388 FILLER_0_22_3
*1389 FILLER_0_22_305
*1390 FILLER_0_22_309
*1391 FILLER_0_22_42
*1392 FILLER_0_22_54
*1393 FILLER_0_22_66
*1394 FILLER_0_22_74
*1395 FILLER_0_22_81
*1396 FILLER_0_22_88
*1397 FILLER_0_22_92
*1398 FILLER_0_23_104
*1399 FILLER_0_23_11
*1400 FILLER_0_23_113
*1401 FILLER_0_23_121
*1402 FILLER_0_23_130
*1403 FILLER_0_23_146
*1404 FILLER_0_23_169
*1405 FILLER_0_23_221
*1406 FILLER_0_23_244
*1407 FILLER_0_23_279
*1408 FILLER_0_23_3
*1409 FILLER_0_23_310
*1410 FILLER_0_23_319
*1411 FILLER_0_23_334
*1412 FILLER_0_23_340
*1413 FILLER_0_23_349
*1414 FILLER_0_23_37
*1415 FILLER_0_23_49
*1416 FILLER_0_23_55
*1417 FILLER_0_23_57
*1418 FILLER_0_23_65
*1419 FILLER_0_23_82
*1420 FILLER_0_24_110
*1421 FILLER_0_24_122
*1422 FILLER_0_24_15
*1423 FILLER_0_24_189
*1424 FILLER_0_24_205
*1425 FILLER_0_24_241
*1426 FILLER_0_24_27
*1427 FILLER_0_24_271
*1428 FILLER_0_24_283
*1429 FILLER_0_24_3
*1430 FILLER_0_24_302
*1431 FILLER_0_24_309
*1432 FILLER_0_24_330
*1433 FILLER_0_24_38
*1434 FILLER_0_24_47
*1435 FILLER_0_24_55
*1436 FILLER_0_24_82
*1437 FILLER_0_24_85
*1438 FILLER_0_25_111
*1439 FILLER_0_25_137
*1440 FILLER_0_25_15
*1441 FILLER_0_25_152
*1442 FILLER_0_25_166
*1443 FILLER_0_25_169
*1444 FILLER_0_25_183
*1445 FILLER_0_25_223
*1446 FILLER_0_25_230
*1447 FILLER_0_25_256
*1448 FILLER_0_25_268
*1449 FILLER_0_25_281
*1450 FILLER_0_25_290
*1451 FILLER_0_25_3
*1452 FILLER_0_25_302
*1453 FILLER_0_25_349
*1454 FILLER_0_25_52
*1455 FILLER_0_25_57
*1456 FILLER_0_25_65
*1457 FILLER_0_25_79
*1458 FILLER_0_25_85
*1459 FILLER_0_25_99
*1460 FILLER_0_26_105
*1461 FILLER_0_26_126
*1462 FILLER_0_26_149
*1463 FILLER_0_26_155
*1464 FILLER_0_26_164
*1465 FILLER_0_26_186
*1466 FILLER_0_26_195
*1467 FILLER_0_26_218
*1468 FILLER_0_26_234
*1469 FILLER_0_26_265
*1470 FILLER_0_26_271
*1471 FILLER_0_26_3
*1472 FILLER_0_26_302
*1473 FILLER_0_26_349
*1474 FILLER_0_26_53
*1475 FILLER_0_26_74
*1476 FILLER_0_26_82
*1477 FILLER_0_26_93
*1478 FILLER_0_27_105
*1479 FILLER_0_27_110
*1480 FILLER_0_27_113
*1481 FILLER_0_27_144
*1482 FILLER_0_27_148
*1483 FILLER_0_27_15
*1484 FILLER_0_27_162
*1485 FILLER_0_27_177
*1486 FILLER_0_27_229
*1487 FILLER_0_27_233
*1488 FILLER_0_27_270
*1489 FILLER_0_27_3
*1490 FILLER_0_27_313
*1491 FILLER_0_27_317
*1492 FILLER_0_27_334
*1493 FILLER_0_27_341
*1494 FILLER_0_27_349
*1495 FILLER_0_27_48
*1496 FILLER_0_27_57
*1497 FILLER_0_27_65
*1498 FILLER_0_27_82
*1499 FILLER_0_27_88
*1500 FILLER_0_27_97
*1501 FILLER_0_28_101
*1502 FILLER_0_28_134
*1503 FILLER_0_28_141
*1504 FILLER_0_28_145
*1505 FILLER_0_28_149
*1506 FILLER_0_28_15
*1507 FILLER_0_28_174
*1508 FILLER_0_28_186
*1509 FILLER_0_28_229
*1510 FILLER_0_28_23
*1511 FILLER_0_28_235
*1512 FILLER_0_28_253
*1513 FILLER_0_28_265
*1514 FILLER_0_28_273
*1515 FILLER_0_28_297
*1516 FILLER_0_28_3
*1517 FILLER_0_28_305
*1518 FILLER_0_28_309
*1519 FILLER_0_28_321
*1520 FILLER_0_28_342
*1521 FILLER_0_28_350
*1522 FILLER_0_28_39
*1523 FILLER_0_28_51
*1524 FILLER_0_28_55
*1525 FILLER_0_28_82
*1526 FILLER_0_28_97
*1527 FILLER_0_29_113
*1528 FILLER_0_29_143
*1529 FILLER_0_29_15
*1530 FILLER_0_29_181
*1531 FILLER_0_29_200
*1532 FILLER_0_29_208
*1533 FILLER_0_29_222
*1534 FILLER_0_29_225
*1535 FILLER_0_29_237
*1536 FILLER_0_29_241
*1537 FILLER_0_29_258
*1538 FILLER_0_29_270
*1539 FILLER_0_29_281
*1540 FILLER_0_29_290
*1541 FILLER_0_29_3
*1542 FILLER_0_29_311
*1543 FILLER_0_29_323
*1544 FILLER_0_29_335
*1545 FILLER_0_29_337
*1546 FILLER_0_29_349
*1547 FILLER_0_29_41
*1548 FILLER_0_29_53
*1549 FILLER_0_29_98
*1550 FILLER_0_2_109
*1551 FILLER_0_2_121
*1552 FILLER_0_2_15
*1553 FILLER_0_2_152
*1554 FILLER_0_2_195
*1555 FILLER_0_2_208
*1556 FILLER_0_2_256
*1557 FILLER_0_2_268
*1558 FILLER_0_2_27
*1559 FILLER_0_2_280
*1560 FILLER_0_2_29
*1561 FILLER_0_2_292
*1562 FILLER_0_2_3
*1563 FILLER_0_2_304
*1564 FILLER_0_2_309
*1565 FILLER_0_2_321
*1566 FILLER_0_2_333
*1567 FILLER_0_2_345
*1568 FILLER_0_2_41
*1569 FILLER_0_2_53
*1570 FILLER_0_2_65
*1571 FILLER_0_2_77
*1572 FILLER_0_2_83
*1573 FILLER_0_2_85
*1574 FILLER_0_2_97
*1575 FILLER_0_30_11
*1576 FILLER_0_30_178
*1577 FILLER_0_30_204
*1578 FILLER_0_30_222
*1579 FILLER_0_30_234
*1580 FILLER_0_30_246
*1581 FILLER_0_30_270
*1582 FILLER_0_30_282
*1583 FILLER_0_30_3
*1584 FILLER_0_30_343
*1585 FILLER_0_30_57
*1586 FILLER_0_30_83
*1587 FILLER_0_30_99
*1588 FILLER_0_31_108
*1589 FILLER_0_31_11
*1590 FILLER_0_31_138
*1591 FILLER_0_31_167
*1592 FILLER_0_31_189