*SPEF "ieee 1481-1999"
*DESIGN "tt_um_rgb_mixer"
*DATE "11:11:11 Fri 11 11, 1111"
*VENDOR "OpenRCX"
*PROGRAM "Parallel Extraction"
*VERSION "1.0"
*DESIGN_FLOW "NAME_SCOPE LOCAL" "PIN_CAP NONE"
*DIVIDER /
*DELIMITER :
*BUS_DELIMITER []
*T_UNIT 1 NS
*C_UNIT 1 PF
*R_UNIT 1 OHM
*L_UNIT 1 HENRY

*NAME_MAP
*3 clk
*4 ena
*5 rst_n
*6 ui_in[0]
*7 ui_in[1]
*8 ui_in[2]
*9 ui_in[3]
*10 ui_in[4]
*11 ui_in[5]
*12 ui_in[6]
*13 ui_in[7]
*14 uio_in[0]
*15 uio_in[1]
*16 uio_in[2]
*17 uio_in[3]
*18 uio_in[4]
*19 uio_in[5]
*20 uio_in[6]
*21 uio_in[7]
*22 net8
*23 net9
*24 net10
*25 net11
*26 net12
*27 net13
*28 net14
*29 net15
*30 net16
*31 net17
*32 net18
*33 net19
*34 net20
*35 net21
*36 net22
*37 net23
*38 uo_out[0]
*39 uo_out[1]
*40 uo_out[2]
*41 net24
*42 net25
*43 net26
*44 net27
*45 net28
*46 _0000_
*47 _0001_
*48 _0002_
*49 _0003_
*50 _0004_
*51 _0005_
*52 _0006_
*53 _0007_
*54 _0008_
*55 _0009_
*56 _0010_
*57 _0011_
*58 _0012_
*59 _0013_
*60 _0014_
*61 _0015_
*62 _0016_
*63 _0017_
*64 _0018_
*65 _0019_
*66 _0020_
*67 _0021_
*68 _0022_
*69 _0023_
*70 _0024_
*71 _0025_
*72 _0026_
*73 _0027_
*74 _0028_
*75 _0029_
*76 _0030_
*77 _0031_
*78 _0032_
*79 _0033_
*80 _0034_
*81 _0035_
*82 _0036_
*83 _0037_
*84 _0038_
*85 _0039_
*86 _0040_
*87 _0041_
*88 _0042_
*89 _0043_
*90 _0044_
*91 _0045_
*92 _0046_
*93 _0047_
*94 _0048_
*95 _0049_
*96 _0050_
*97 _0051_
*98 _0052_
*99 _0053_
*100 _0054_
*101 _0055_
*102 _0056_
*103 _0057_
*104 _0058_
*105 _0059_
*106 _0060_
*107 _0061_
*108 _0062_
*109 _0063_
*110 _0064_
*111 _0065_
*112 _0066_
*113 _0067_
*114 _0068_
*115 _0069_
*116 _0070_
*117 _0071_
*118 _0072_
*119 _0073_
*120 _0074_
*121 _0075_
*122 _0076_
*123 _0077_
*124 _0078_
*125 _0079_
*126 _0080_
*127 _0081_
*128 _0082_
*129 _0083_
*130 _0084_
*131 _0085_
*132 _0086_
*133 _0087_
*134 _0088_
*135 _0089_
*136 _0090_
*137 _0091_
*138 _0092_
*139 _0093_
*140 _0094_
*141 _0095_
*142 _0096_
*143 _0097_
*144 _0098_
*145 _0099_
*146 _0100_
*147 _0101_
*148 _0102_
*149 _0103_
*150 _0104_
*151 _0105_
*152 _0106_
*153 _0107_
*154 _0108_
*155 _0109_
*156 _0110_
*157 _0111_
*158 _0112_
*159 _0113_
*160 _0114_
*161 _0115_
*162 _0116_
*163 _0117_
*164 _0118_
*165 _0119_
*166 _0120_
*167 _0121_
*168 _0122_
*169 _0123_
*170 _0124_
*171 _0125_
*172 _0126_
*173 _0127_
*174 _0128_
*175 _0129_
*176 _0130_
*177 _0131_
*178 _0132_
*179 _0133_
*180 _0134_
*181 _0135_
*182 _0136_
*183 _0137_
*184 _0138_
*185 _0139_
*186 _0140_
*187 _0141_
*188 _0142_
*189 _0143_
*190 _0144_
*191 _0145_
*192 _0146_
*193 _0147_
*194 _0148_
*195 _0149_
*196 _0150_
*197 _0151_
*198 _0152_
*199 _0153_
*200 _0154_
*201 _0155_
*202 _0156_
*203 _0157_
*204 _0158_
*205 _0159_
*206 _0160_
*207 _0161_
*208 _0162_
*209 _0163_
*210 _0164_
*211 _0165_
*212 _0166_
*213 _0167_
*214 _0168_
*215 _0169_
*216 _0170_
*217 _0171_
*218 _0172_
*219 _0173_
*220 _0174_
*221 _0175_
*222 _0176_
*223 _0177_
*224 _0178_
*225 _0179_
*226 _0180_
*227 _0181_
*228 _0182_
*229 _0183_
*230 _0184_
*231 _0185_
*232 _0186_
*233 _0187_
*234 _0188_
*235 _0189_
*236 _0190_
*237 _0191_
*238 _0192_
*239 _0193_
*240 _0194_
*241 _0195_
*242 _0196_
*243 _0197_
*244 _0198_
*245 _0199_
*246 _0200_
*247 _0201_
*248 _0202_
*249 _0203_
*250 _0204_
*251 _0205_
*252 _0206_
*253 _0207_
*254 _0208_
*255 _0209_
*256 _0210_
*257 _0211_
*258 _0212_
*259 _0213_
*260 _0214_
*261 _0215_
*262 _0216_
*263 _0217_
*264 _0218_
*265 _0219_
*266 _0220_
*267 _0221_
*268 _0222_
*269 _0223_
*270 _0224_
*271 _0225_
*272 _0226_
*273 _0227_
*274 _0228_
*275 _0229_
*276 _0230_
*277 _0231_
*278 _0232_
*279 _0233_
*280 _0234_
*281 _0235_
*282 _0236_
*283 _0237_
*284 _0238_
*285 _0239_
*286 _0240_
*287 _0241_
*288 _0242_
*289 _0243_
*290 _0244_
*291 _0245_
*292 _0246_
*293 _0247_
*294 _0248_
*295 _0249_
*296 _0250_
*297 _0251_
*298 _0252_
*299 _0253_
*300 _0254_
*301 _0255_
*302 _0256_
*303 _0257_
*304 _0258_
*305 _0259_
*306 _0260_
*307 _0261_
*308 _0262_
*309 _0263_
*310 _0264_
*311 _0265_
*312 _0266_
*313 _0267_
*314 _0268_
*315 _0269_
*316 _0270_
*317 _0271_
*318 _0272_
*319 _0273_
*320 _0274_
*321 _0275_
*322 _0276_
*323 _0277_
*324 _0278_
*325 _0279_
*326 _0280_
*327 _0281_
*328 _0282_
*329 _0283_
*330 _0284_
*331 _0285_
*332 _0286_
*333 _0287_
*334 _0288_
*335 _0289_
*336 _0290_
*337 _0291_
*338 _0292_
*339 _0293_
*340 _0294_
*341 _0295_
*342 _0296_
*343 _0297_
*344 _0298_
*345 _0299_
*346 _0300_
*347 _0301_
*348 _0302_
*349 _0303_
*350 _0304_
*351 _0305_
*352 _0306_
*353 _0307_
*354 _0308_
*355 _0309_
*356 _0310_
*357 _0311_
*358 _0312_
*359 _0313_
*360 _0314_
*361 _0315_
*362 _0316_
*363 _0317_
*364 _0318_
*365 _0319_
*366 _0320_
*367 _0321_
*368 _0322_
*369 _0323_
*370 _0324_
*371 _0325_
*372 _0326_
*373 _0327_
*374 _0328_
*375 _0329_
*376 _0330_
*377 _0331_
*378 _0332_
*379 _0333_
*380 _0334_
*381 _0335_
*382 _0336_
*383 _0337_
*384 _0338_
*385 _0339_
*386 _0340_
*387 _0341_
*388 _0342_
*389 _0343_
*390 _0344_
*391 _0345_
*392 _0346_
*393 _0347_
*394 _0348_
*395 _0349_
*396 _0350_
*397 _0351_
*398 _0352_
*399 _0353_
*400 _0354_
*401 _0355_
*402 _0356_
*403 _0357_
*404 _0358_
*405 _0359_
*406 _0360_
*407 _0361_
*408 _0362_
*409 _0363_
*410 _0364_
*411 _0365_
*412 _0366_
*413 _0367_
*414 _0368_
*415 _0369_
*416 _0370_
*417 _0371_
*418 _0372_
*419 _0373_
*420 _0374_
*421 _0375_
*422 _0376_
*423 _0377_
*424 _0378_
*425 _0379_
*426 _0380_
*427 _0381_
*428 _0382_
*429 _0383_
*430 _0384_
*431 _0385_
*432 _0386_
*433 _0387_
*434 _0388_
*435 _0389_
*436 _0390_
*437 _0391_
*438 _0392_
*439 _0393_
*440 _0394_
*441 _0395_
*442 _0396_
*443 _0397_
*444 _0398_
*445 _0399_
*446 _0400_
*447 _0401_
*448 _0402_
*449 _0403_
*450 _0404_
*451 _0405_
*452 _0406_
*453 _0407_
*454 _0408_
*455 _0409_
*456 _0410_
*457 _0411_
*458 _0412_
*459 _0413_
*460 _0414_
*461 _0415_
*462 _0416_
*463 _0417_
*464 _0418_
*465 _0419_
*466 _0420_
*467 _0421_
*468 _0422_
*469 _0423_
*470 _0424_
*471 _0425_
*472 _0426_
*473 _0427_
*474 _0428_
*475 _0429_
*476 _0430_
*477 _0431_
*478 _0432_
*479 _0433_
*480 clknet_0_clk
*481 clknet_3_0__leaf_clk
*482 clknet_3_1__leaf_clk
*483 clknet_3_2__leaf_clk
*484 clknet_3_3__leaf_clk
*485 clknet_3_4__leaf_clk
*486 clknet_3_5__leaf_clk
*487 clknet_3_6__leaf_clk
*488 clknet_3_7__leaf_clk
*489 net1
*490 net100
*491 net101
*492 net102
*493 net103
*494 net104
*495 net105
*496 net2
*497 net29
*498 net3
*499 net30
*500 net31
*501 net32
*502 net33
*503 net34
*504 net35
*505 net36
*506 net37
*507 net38
*508 net39
*509 net4
*510 net40
*511 net41
*512 net42
*513 net43
*514 net44
*515 net45
*516 net46
*517 net47
*518 net48
*519 net49
*520 net5
*521 net50
*522 net51
*523 net52
*524 net53
*525 net54
*526 net55
*527 net56
*528 net57
*529 net58
*530 net59
*531 net6
*532 net60
*533 net61
*534 net62
*535 net63
*536 net64
*537 net65
*538 net66
*539 net67
*540 net68
*541 net69
*542 net7
*543 net70
*544 net71
*545 net72
*546 net73
*547 net74
*548 net75
*549 net76
*550 net77
*551 net78
*552 net79
*553 net80
*554 net81
*555 net82
*556 net83
*557 net84
*558 net85
*559 net86
*560 net87
*561 net88
*562 net89
*563 net90
*564 net91
*565 net92
*566 net93
*567 net94
*568 net95
*569 net96
*570 net97
*571 net98
*572 net99
*573 rgb_mixer\.debounce0_a\.button_hist\[0\]
*574 rgb_mixer\.debounce0_a\.button_hist\[1\]
*575 rgb_mixer\.debounce0_a\.button_hist\[2\]
*576 rgb_mixer\.debounce0_a\.button_hist\[3\]
*577 rgb_mixer\.debounce0_a\.button_hist\[4\]
*578 rgb_mixer\.debounce0_a\.button_hist\[5\]
*579 rgb_mixer\.debounce0_a\.button_hist\[6\]
*580 rgb_mixer\.debounce0_a\.button_hist\[7\]
*581 rgb_mixer\.debounce0_a\.debounced
*582 rgb_mixer\.debounce0_b\.button_hist\[0\]
*583 rgb_mixer\.debounce0_b\.button_hist\[1\]
*584 rgb_mixer\.debounce0_b\.button_hist\[2\]
*585 rgb_mixer\.debounce0_b\.button_hist\[3\]
*586 rgb_mixer\.debounce0_b\.button_hist\[4\]
*587 rgb_mixer\.debounce0_b\.button_hist\[5\]
*588 rgb_mixer\.debounce0_b\.button_hist\[6\]
*589 rgb_mixer\.debounce0_b\.button_hist\[7\]
*590 rgb_mixer\.debounce0_b\.debounced
*591 rgb_mixer\.debounce1_a\.button_hist\[0\]
*592 rgb_mixer\.debounce1_a\.button_hist\[1\]
*593 rgb_mixer\.debounce1_a\.button_hist\[2\]
*594 rgb_mixer\.debounce1_a\.button_hist\[3\]
*595 rgb_mixer\.debounce1_a\.button_hist\[4\]
*596 rgb_mixer\.debounce1_a\.button_hist\[5\]
*597 rgb_mixer\.debounce1_a\.button_hist\[6\]
*598 rgb_mixer\.debounce1_a\.button_hist\[7\]
*599 rgb_mixer\.debounce1_a\.debounced
*600 rgb_mixer\.debounce1_b\.button_hist\[0\]
*601 rgb_mixer\.debounce1_b\.button_hist\[1\]
*602 rgb_mixer\.debounce1_b\.button_hist\[2\]
*603 rgb_mixer\.debounce1_b\.button_hist\[3\]
*604 rgb_mixer\.debounce1_b\.button_hist\[4\]
*605 rgb_mixer\.debounce1_b\.button_hist\[5\]
*606 rgb_mixer\.debounce1_b\.button_hist\[6\]
*607 rgb_mixer\.debounce1_b\.button_hist\[7\]
*608 rgb_mixer\.debounce1_b\.debounced
*609 rgb_mixer\.debounce2_a\.button_hist\[0\]
*610 rgb_mixer\.debounce2_a\.button_hist\[1\]
*611 rgb_mixer\.debounce2_a\.button_hist\[2\]
*612 rgb_mixer\.debounce2_a\.button_hist\[3\]
*613 rgb_mixer\.debounce2_a\.button_hist\[4\]
*614 rgb_mixer\.debounce2_a\.button_hist\[5\]
*615 rgb_mixer\.debounce2_a\.button_hist\[6\]
*616 rgb_mixer\.debounce2_a\.button_hist\[7\]
*617 rgb_mixer\.debounce2_a\.debounced
*618 rgb_mixer\.debounce2_b\.button_hist\[0\]
*619 rgb_mixer\.debounce2_b\.button_hist\[1\]
*620 rgb_mixer\.debounce2_b\.button_hist\[2\]
*621 rgb_mixer\.debounce2_b\.button_hist\[3\]
*622 rgb_mixer\.debounce2_b\.button_hist\[4\]
*623 rgb_mixer\.debounce2_b\.button_hist\[5\]
*624 rgb_mixer\.debounce2_b\.button_hist\[6\]
*625 rgb_mixer\.debounce2_b\.button_hist\[7\]
*626 rgb_mixer\.debounce2_b\.debounced
*627 rgb_mixer\.enc0\[0\]
*628 rgb_mixer\.enc0\[1\]
*629 rgb_mixer\.enc0\[2\]
*630 rgb_mixer\.enc0\[3\]
*631 rgb_mixer\.enc0\[4\]
*632 rgb_mixer\.enc0\[5\]
*633 rgb_mixer\.enc0\[6\]
*634 rgb_mixer\.enc0\[7\]
*635 rgb_mixer\.enc1\[0\]
*636 rgb_mixer\.enc1\[1\]
*637 rgb_mixer\.enc1\[2\]
*638 rgb_mixer\.enc1\[3\]
*639 rgb_mixer\.enc1\[4\]
*640 rgb_mixer\.enc1\[5\]
*641 rgb_mixer\.enc1\[6\]
*642 rgb_mixer\.enc1\[7\]
*643 rgb_mixer\.enc2\[0\]
*644 rgb_mixer\.enc2\[1\]
*645 rgb_mixer\.enc2\[2\]
*646 rgb_mixer\.enc2\[3\]
*647 rgb_mixer\.enc2\[4\]
*648 rgb_mixer\.enc2\[5\]
*649 rgb_mixer\.enc2\[6\]
*650 rgb_mixer\.enc2\[7\]
*651 rgb_mixer\.encoder0\.old_a
*652 rgb_mixer\.encoder0\.old_b
*653 rgb_mixer\.encoder1\.old_a
*654 rgb_mixer\.encoder1\.old_b
*655 rgb_mixer\.encoder2\.old_a
*656 rgb_mixer\.encoder2\.old_b
*657 rgb_mixer\.pwm0\.count\[0\]
*658 rgb_mixer\.pwm0\.count\[1\]
*659 rgb_mixer\.pwm0\.count\[2\]
*660 rgb_mixer\.pwm0\.count\[3\]
*661 rgb_mixer\.pwm0\.count\[4\]
*662 rgb_mixer\.pwm0\.count\[5\]
*663 rgb_mixer\.pwm0\.count\[6\]
*664 rgb_mixer\.pwm0\.count\[7\]
*665 rgb_mixer\.pwm0\.out
*666 rgb_mixer\.pwm1\.count\[0\]
*667 rgb_mixer\.pwm1\.count\[1\]
*668 rgb_mixer\.pwm1\.count\[2\]
*669 rgb_mixer\.pwm1\.count\[3\]
*670 rgb_mixer\.pwm1\.count\[4\]
*671 rgb_mixer\.pwm1\.count\[5\]
*672 rgb_mixer\.pwm1\.count\[6\]
*673 rgb_mixer\.pwm1\.count\[7\]
*674 rgb_mixer\.pwm1\.out
*675 rgb_mixer\.pwm2\.count\[0\]
*676 rgb_mixer\.pwm2\.count\[1\]
*677 rgb_mixer\.pwm2\.count\[2\]
*678 rgb_mixer\.pwm2\.count\[3\]
*679 rgb_mixer\.pwm2\.count\[4\]
*680 rgb_mixer\.pwm2\.count\[5\]
*681 rgb_mixer\.pwm2\.count\[6\]
*682 rgb_mixer\.pwm2\.count\[7\]
*683 rgb_mixer\.pwm2\.out
*684 FILLER_0_0_109
*685 FILLER_0_0_113
*686 FILLER_0_0_125
*687 FILLER_0_0_137
*688 FILLER_0_0_141
*689 FILLER_0_0_15
*690 FILLER_0_0_153
*691 FILLER_0_0_165
*692 FILLER_0_0_169
*693 FILLER_0_0_181
*694 FILLER_0_0_193
*695 FILLER_0_0_197
*696 FILLER_0_0_209
*697 FILLER_0_0_221
*698 FILLER_0_0_225
*699 FILLER_0_0_237
*700 FILLER_0_0_249
*701 FILLER_0_0_253
*702 FILLER_0_0_265
*703 FILLER_0_0_27
*704 FILLER_0_0_277
*705 FILLER_0_0_281
*706 FILLER_0_0_29
*707 FILLER_0_0_293
*708 FILLER_0_0_3
*709 FILLER_0_0_305
*710 FILLER_0_0_309
*711 FILLER_0_0_321
*712 FILLER_0_0_333
*713 FILLER_0_0_337
*714 FILLER_0_0_349
*715 FILLER_0_0_41
*716 FILLER_0_0_53
*717 FILLER_0_0_57
*718 FILLER_0_0_69
*719 FILLER_0_0_81
*720 FILLER_0_0_85
*721 FILLER_0_0_97
*722 FILLER_0_10_109
*723 FILLER_0_10_121
*724 FILLER_0_10_133
*725 FILLER_0_10_139
*726 FILLER_0_10_141
*727 FILLER_0_10_15
*728 FILLER_0_10_153
*729 FILLER_0_10_165
*730 FILLER_0_10_177
*731 FILLER_0_10_189
*732 FILLER_0_10_195
*733 FILLER_0_10_197
*734 FILLER_0_10_209
*735 FILLER_0_10_221
*736 FILLER_0_10_233
*737 FILLER_0_10_245
*738 FILLER_0_10_251
*739 FILLER_0_10_253
*740 FILLER_0_10_265
*741 FILLER_0_10_27
*742 FILLER_0_10_277
*743 FILLER_0_10_289
*744 FILLER_0_10_29
*745 FILLER_0_10_3
*746 FILLER_0_10_301
*747 FILLER_0_10_307
*748 FILLER_0_10_309
*749 FILLER_0_10_321
*750 FILLER_0_10_333
*751 FILLER_0_10_345
*752 FILLER_0_10_41
*753 FILLER_0_10_53
*754 FILLER_0_10_65
*755 FILLER_0_10_77
*756 FILLER_0_10_83
*757 FILLER_0_10_85
*758 FILLER_0_10_97
*759 FILLER_0_11_105
*760 FILLER_0_11_111
*761 FILLER_0_11_113
*762 FILLER_0_11_125
*763 FILLER_0_11_137
*764 FILLER_0_11_149
*765 FILLER_0_11_15
*766 FILLER_0_11_161
*767 FILLER_0_11_167
*768 FILLER_0_11_169
*769 FILLER_0_11_181
*770 FILLER_0_11_193
*771 FILLER_0_11_205
*772 FILLER_0_11_217
*773 FILLER_0_11_223
*774 FILLER_0_11_225
*775 FILLER_0_11_237
*776 FILLER_0_11_249
*777 FILLER_0_11_261
*778 FILLER_0_11_27
*779 FILLER_0_11_273
*780 FILLER_0_11_279
*781 FILLER_0_11_281
*782 FILLER_0_11_293
*783 FILLER_0_11_3
*784 FILLER_0_11_305
*785 FILLER_0_11_317
*786 FILLER_0_11_329
*787 FILLER_0_11_335
*788 FILLER_0_11_337
*789 FILLER_0_11_349
*790 FILLER_0_11_39
*791 FILLER_0_11_51
*792 FILLER_0_11_55
*793 FILLER_0_11_57
*794 FILLER_0_11_69
*795 FILLER_0_11_81
*796 FILLER_0_11_93
*797 FILLER_0_12_109
*798 FILLER_0_12_121
*799 FILLER_0_12_133
*800 FILLER_0_12_139
*801 FILLER_0_12_141
*802 FILLER_0_12_15
*803 FILLER_0_12_153
*804 FILLER_0_12_165
*805 FILLER_0_12_177
*806 FILLER_0_12_189
*807 FILLER_0_12_195
*808 FILLER_0_12_197
*809 FILLER_0_12_209
*810 FILLER_0_12_221
*811 FILLER_0_12_233
*812 FILLER_0_12_245
*813 FILLER_0_12_251
*814 FILLER_0_12_253
*815 FILLER_0_12_265
*816 FILLER_0_12_27
*817 FILLER_0_12_277
*818 FILLER_0_12_289
*819 FILLER_0_12_29
*820 FILLER_0_12_3
*821 FILLER_0_12_301
*822 FILLER_0_12_307
*823 FILLER_0_12_309
*824 FILLER_0_12_321
*825 FILLER_0_12_333
*826 FILLER_0_12_345
*827 FILLER_0_12_41
*828 FILLER_0_12_53
*829 FILLER_0_12_65
*830 FILLER_0_12_77
*831 FILLER_0_12_83
*832 FILLER_0_12_85
*833 FILLER_0_12_97
*834 FILLER_0_13_105
*835 FILLER_0_13_111
*836 FILLER_0_13_113
*837 FILLER_0_13_125
*838 FILLER_0_13_137
*839 FILLER_0_13_149
*840 FILLER_0_13_15
*841 FILLER_0_13_161
*842 FILLER_0_13_167
*843 FILLER_0_13_169
*844 FILLER_0_13_181
*845 FILLER_0_13_193
*846 FILLER_0_13_205
*847 FILLER_0_13_217
*848 FILLER_0_13_223
*849 FILLER_0_13_225
*850 FILLER_0_13_237
*851 FILLER_0_13_249
*852 FILLER_0_13_261
*853 FILLER_0_13_27
*854 FILLER_0_13_273
*855 FILLER_0_13_279
*856 FILLER_0_13_281
*857 FILLER_0_13_293
*858 FILLER_0_13_3
*859 FILLER_0_13_305
*860 FILLER_0_13_317
*861 FILLER_0_13_329
*862 FILLER_0_13_335
*863 FILLER_0_13_337
*864 FILLER_0_13_349
*865 FILLER_0_13_39
*866 FILLER_0_13_51
*867 FILLER_0_13_55
*868 FILLER_0_13_57
*869 FILLER_0_13_69
*870 FILLER_0_13_81
*871 FILLER_0_13_93
*872 FILLER_0_14_109
*873 FILLER_0_14_121
*874 FILLER_0_14_133
*875 FILLER_0_14_139
*876 FILLER_0_14_141
*877 FILLER_0_14_15
*878 FILLER_0_14_156
*879 FILLER_0_14_168
*880 FILLER_0_14_180
*881 FILLER_0_14_213
*882 FILLER_0_14_225
*883 FILLER_0_14_237
*884 FILLER_0_14_249
*885 FILLER_0_14_253
*886 FILLER_0_14_265
*887 FILLER_0_14_27
*888 FILLER_0_14_277
*889 FILLER_0_14_289
*890 FILLER_0_14_29
*891 FILLER_0_14_3
*892 FILLER_0_14_301
*893 FILLER_0_14_307
*894 FILLER_0_14_309
*895 FILLER_0_14_321
*896 FILLER_0_14_333
*897 FILLER_0_14_345
*898 FILLER_0_14_41
*899 FILLER_0_14_53
*900 FILLER_0_14_65
*901 FILLER_0_14_77
*902 FILLER_0_14_83
*903 FILLER_0_14_85
*904 FILLER_0_14_97
*905 FILLER_0_15_110
*906 FILLER_0_15_118
*907 FILLER_0_15_130
*908 FILLER_0_15_142
*909 FILLER_0_15_148
*910 FILLER_0_15_15
*911 FILLER_0_15_164
*912 FILLER_0_15_174
*913 FILLER_0_15_186
*914 FILLER_0_15_204
*915 FILLER_0_15_220
*916 FILLER_0_15_225
*917 FILLER_0_15_255
*918 FILLER_0_15_267
*919 FILLER_0_15_27
*920 FILLER_0_15_272
*921 FILLER_0_15_281
*922 FILLER_0_15_293
*923 FILLER_0_15_3
*924 FILLER_0_15_305
*925 FILLER_0_15_317
*926 FILLER_0_15_329
*927 FILLER_0_15_335
*928 FILLER_0_15_337
*929 FILLER_0_15_349
*930 FILLER_0_15_39
*931 FILLER_0_15_51
*932 FILLER_0_15_55
*933 FILLER_0_15_57
*934 FILLER_0_15_61
*935 FILLER_0_15_71
*936 FILLER_0_15_83
*937 FILLER_0_15_95
*938 FILLER_0_16_123
*939 FILLER_0_16_135
*940 FILLER_0_16_139
*941 FILLER_0_16_15
*942 FILLER_0_16_177
*943 FILLER_0_16_215
*944 FILLER_0_16_221
*945 FILLER_0_16_236
*946 FILLER_0_16_240
*947 FILLER_0_16_27
*948 FILLER_0_16_286
*949 FILLER_0_16_29
*950 FILLER_0_16_298
*951 FILLER_0_16_3
*952 FILLER_0_16_306
*953 FILLER_0_16_309
*954 FILLER_0_16_321
*955 FILLER_0_16_333
*956 FILLER_0_16_345
*957 FILLER_0_16_41
*958 FILLER_0_16_53
*959 FILLER_0_16_78
*960 FILLER_0_16_85
*961 FILLER_0_16_93
*962 FILLER_0_17_110
*963 FILLER_0_17_135
*964 FILLER_0_17_143
*965 FILLER_0_17_15
*966 FILLER_0_17_166
*967 FILLER_0_17_172
*968 FILLER_0_17_180
*969 FILLER_0_17_201
*970 FILLER_0_17_216
*971 FILLER_0_17_220
*972 FILLER_0_17_232
*973 FILLER_0_17_241
*974 FILLER_0_17_263
*975 FILLER_0_17_299
*976 FILLER_0_17_3
*977 FILLER_0_17_311
*978 FILLER_0_17_330
*979 FILLER_0_17_337
*980 FILLER_0_17_34
*981 FILLER_0_17_349
*982 FILLER_0_17_46
*983 FILLER_0_17_52
*984 FILLER_0_17_88
*985 FILLER_0_18_128
*986 FILLER_0_18_138
*987 FILLER_0_18_141
*988 FILLER_0_18_15
*989 FILLER_0_18_173
*990 FILLER_0_18_185
*991 FILLER_0_18_204
*992 FILLER_0_18_216
*993 FILLER_0_18_250
*994 FILLER_0_18_253
*995 FILLER_0_18_260
*996 FILLER_0_18_293
*997 FILLER_0_18_3
*998 FILLER_0_18_305
*999 FILLER_0_18_328
*1000 FILLER_0_18_346
*1001 FILLER_0_18_350
*1002 FILLER_0_18_43
*1003 FILLER_0_18_53
*1004 FILLER_0_18_81
*1005 FILLER_0_19_102
*1006 FILLER_0_19_111
*1007 FILLER_0_19_116
*1008 FILLER_0_19_128
*1009 FILLER_0_19_140
*1010 FILLER_0_19_148
*1011 FILLER_0_19_15
*1012 FILLER_0_19_157
*1013 FILLER_0_19_165
*1014 FILLER_0_19_172
*1015 FILLER_0_19_184
*1016 FILLER_0_19_196
*1017 FILLER_0_19_208
*1018 FILLER_0_19_220
*1019 FILLER_0_19_225
*1020 FILLER_0_19_233
*1021 FILLER_0_19_250
*1022 FILLER_0_19_265
*1023 FILLER_0_19_277
*1024 FILLER_0_19_287
*1025 FILLER_0_19_299
*1026 FILLER_0_19_3
*1027 FILLER_0_19_307
*1028 FILLER_0_19_32
*1029 FILLER_0_19_350
*1030 FILLER_0_19_52
*1031 FILLER_0_19_57
*1032 FILLER_0_19_95
*1033 FILLER_0_1_105
*1034 FILLER_0_1_111
*1035 FILLER_0_1_113
*1036 FILLER_0_1_125
*1037 FILLER_0_1_137
*1038 FILLER_0_1_149
*1039 FILLER_0_1_15
*1040 FILLER_0_1_161
*1041 FILLER_0_1_167
*1042 FILLER_0_1_169
*1043 FILLER_0_1_181
*1044 FILLER_0_1_193
*1045 FILLER_0_1_205
*1046 FILLER_0_1_217
*1047 FILLER_0_1_223
*1048 FILLER_0_1_225
*1049 FILLER_0_1_237
*1050 FILLER_0_1_249
*1051 FILLER_0_1_261
*1052 FILLER_0_1_27
*1053 FILLER_0_1_273
*1054 FILLER_0_1_279
*1055 FILLER_0_1_281
*1056 FILLER_0_1_293
*1057 FILLER_0_1_3
*1058 FILLER_0_1_305
*1059 FILLER_0_1_317
*1060 FILLER_0_1_329
*1061 FILLER_0_1_335
*1062 FILLER_0_1_337
*1063 FILLER_0_1_349
*1064 FILLER_0_1_39
*1065 FILLER_0_1_51
*1066 FILLER_0_1_55
*1067 FILLER_0_1_57
*1068 FILLER_0_1_69
*1069 FILLER_0_1_81
*1070 FILLER_0_1_93
*1071 FILLER_0_20_102
*1072 FILLER_0_20_112
*1073 FILLER_0_20_120
*1074 FILLER_0_20_125
*1075 FILLER_0_20_129
*1076 FILLER_0_20_141
*1077 FILLER_0_20_153
*1078 FILLER_0_20_165
*1079 FILLER_0_20_172
*1080 FILLER_0_20_186
*1081 FILLER_0_20_218
*1082 FILLER_0_20_226
*1083 FILLER_0_20_236
*1084 FILLER_0_20_251
*1085 FILLER_0_20_253
*1086 FILLER_0_20_259
*1087 FILLER_0_20_26
*1088 FILLER_0_20_263
*1089 FILLER_0_20_269
*1090 FILLER_0_20_294
*1091 FILLER_0_20_3
*1092 FILLER_0_20_306
*1093 FILLER_0_20_309
*1094 FILLER_0_20_33
*1095 FILLER_0_20_341
*1096 FILLER_0_20_45
*1097 FILLER_0_20_53
*1098 FILLER_0_20_68
*1099 FILLER_0_20_75
*1100 FILLER_0_20_83
*1101 FILLER_0_20_9
*1102 FILLER_0_20_90
*1103 FILLER_0_21_15
*1104 FILLER_0_21_153
*1105 FILLER_0_21_165
*1106 FILLER_0_21_197
*1107 FILLER_0_21_205
*1108 FILLER_0_21_211
*1109 FILLER_0_21_225
*1110 FILLER_0_21_257
*1111 FILLER_0_21_269
*1112 FILLER_0_21_27
*1113 FILLER_0_21_293
*1114 FILLER_0_21_3
*1115 FILLER_0_21_310
*1116 FILLER_0_21_318
*1117 FILLER_0_21_326
*1118 FILLER_0_21_330
*1119 FILLER_0_21_340
*1120 FILLER_0_21_348
*1121 FILLER_0_21_35
*1122 FILLER_0_21_55
*1123 FILLER_0_21_57
*1124 FILLER_0_21_72
*1125 FILLER_0_21_90
*1126 FILLER_0_21_96
*1127 FILLER_0_22_100
*1128 FILLER_0_22_108
*1129 FILLER_0_22_125
*1130 FILLER_0_22_133
*1131 FILLER_0_22_141
*1132 FILLER_0_22_15
*1133 FILLER_0_22_157
*1134 FILLER_0_22_194
*1135 FILLER_0_22_206
*1136 FILLER_0_22_251
*1137 FILLER_0_22_27
*1138 FILLER_0_22_271
*1139 FILLER_0_22_275
*1140 FILLER_0_22_29
*1141 FILLER_0_22_3
*1142 FILLER_0_22_300
*1143 FILLER_0_22_309
*1144 FILLER_0_22_313
*1145 FILLER_0_22_321
*1146 FILLER_0_22_35
*1147 FILLER_0_22_350
*1148 FILLER_0_22_41
*1149 FILLER_0_22_45
*1150 FILLER_0_22_75
*1151 FILLER_0_22_83
*1152 FILLER_0_22_85
*1153 FILLER_0_23_102
*1154 FILLER_0_23_11
*1155 FILLER_0_23_111
*1156 FILLER_0_23_133
*1157 FILLER_0_23_153
*1158 FILLER_0_23_165
*1159 FILLER_0_23_169
*1160 FILLER_0_23_183
*1161 FILLER_0_23_208
*1162 FILLER_0_23_214
*1163 FILLER_0_23_222
*1164 FILLER_0_23_245
*1165 FILLER_0_23_268
*1166 FILLER_0_23_297
*1167 FILLER_0_23_3
*1168 FILLER_0_23_301
*1169 FILLER_0_23_305
*1170 FILLER_0_23_317
*1171 FILLER_0_23_350
*1172 FILLER_0_23_55
*1173 FILLER_0_23_57
*1174 FILLER_0_23_69
*1175 FILLER_0_23_73
*1176 FILLER_0_23_90
*1177 FILLER_0_24_130
*1178 FILLER_0_24_138
*1179 FILLER_0_24_141
*1180 FILLER_0_24_15
*1181 FILLER_0_24_156
*1182 FILLER_0_24_168
*1183 FILLER_0_24_194
*1184 FILLER_0_24_197
*1185 FILLER_0_24_209
*1186 FILLER_0_24_221
*1187 FILLER_0_24_253
*1188 FILLER_0_24_257
*1189 FILLER_0_24_261
*1190 FILLER_0_24_27
*1191 FILLER_0_24_273
*1192 FILLER_0_24_277
*1193 FILLER_0_24_283
*1194 FILLER_0_24_29
*1195 FILLER_0_24_295
*1196 FILLER_0_24_3
*1197 FILLER_0_24_304
*1198 FILLER_0_24_309
*1199 FILLER_0_24_317
*1200 FILLER_0_24_339
*1201 FILLER_0_24_67
*1202 FILLER_0_25_129
*1203 FILLER_0_25_141
*1204 FILLER_0_25_15
*1205 FILLER_0_25_164
*1206 FILLER_0_25_169
*1207 FILLER_0_25_200
*1208 FILLER_0_25_212
*1209 FILLER_0_25_220
*1210 FILLER_0_25_225
*1211 FILLER_0_25_231
*1212 FILLER_0_25_237
*1213 FILLER_0_25_243
*1214 FILLER_0_25_255
*1215 FILLER_0_25_263
*1216 FILLER_0_25_27
*1217 FILLER_0_25_284
*1218 FILLER_0_25_296
*1219 FILLER_0_25_3
*1220 FILLER_0_25_308
*1221 FILLER_0_25_316
*1222 FILLER_0_25_335
*1223 FILLER_0_25_350
*1224 FILLER_0_25_39
*1225 FILLER_0_25_53
*1226 FILLER_0_25_57
*1227 FILLER_0_25_75
*1228 FILLER_0_25_87
*1229 FILLER_0_25_95
*1230 FILLER_0_26_127
*1231 FILLER_0_26_139
*1232 FILLER_0_26_141
*1233 FILLER_0_26_145
*1234 FILLER_0_26_15
*1235 FILLER_0_26_168
*1236 FILLER_0_26_176
*1237 FILLER_0_26_195
*1238 FILLER_0_26_197
*1239 FILLER_0_26_209
*1240 FILLER_0_26_215
*1241 FILLER_0_26_243
*1242 FILLER_0_26_251
*1243 FILLER_0_26_27
*1244 FILLER_0_26_29
*1245 FILLER_0_26_290
*1246 FILLER_0_26_3
*1247 FILLER_0_26_302
*1248 FILLER_0_26_309
*1249 FILLER_0_26_332
*1250 FILLER_0_26_344
*1251 FILLER_0_26_350
*1252 FILLER_0_26_41
*1253 FILLER_0_26_55
*1254 FILLER_0_26_66
*1255 FILLER_0_26_78
*1256 FILLER_0_26_85
*1257 FILLER_0_26_98
*1258 FILLER_0_27_129
*1259 FILLER_0_27_141
*1260 FILLER_0_27_15
*1261 FILLER_0_27_163
*1262 FILLER_0_27_167
*1263 FILLER_0_27_169
*1264 FILLER_0_27_177
*1265 FILLER_0_27_207
*1266 FILLER_0_27_261
*1267 FILLER_0_27_27
*1268 FILLER_0_27_278
*1269 FILLER_0_27_3
*1270 FILLER_0_27_302
*1271 FILLER_0_27_31
*1272 FILLER_0_27_335
*1273 FILLER_0_27_52
*1274 FILLER_0_27_57
*1275 FILLER_0_27_63
*1276 FILLER_0_27_84
*1277 FILLER_0_28_105
*1278 FILLER_0_28_138
*1279 FILLER_0_28_141
*1280 FILLER_0_28_15
*1281 FILLER_0_28_173
*1282 FILLER_0_28_179
*1283 FILLER_0_28_197
*1284 FILLER_0_28_251
*1285 FILLER_0_28_27
*1286 FILLER_0_28_29
*1287 FILLER_0_28_295
*1288 FILLER_0_28_3
*1289 FILLER_0_28_307
*1290 FILLER_0_28_325
*1291 FILLER_0_28_348
*1292 FILLER_0_28_67
*1293 FILLER_0_29_139
*1294 FILLER_0_29_145
*1295 FILLER_0_29_15
*1296 FILLER_0_29_165
*1297 FILLER_0_29_177
*1298 FILLER_0_29_202
*1299 FILLER_0_29_214
*1300 FILLER_0_29_220
*1301 FILLER_0_29_241
*1302 FILLER_0_29_253
*1303 FILLER_0_29_273
*1304 FILLER_0_29_290
*1305 FILLER_0_29_3
*1306 FILLER_0_29_302
*1307 FILLER_0_29_308
*1308 FILLER_0_29_312
*1309 FILLER_0_29_345
*1310 FILLER_0_29_42
*1311 FILLER_0_29_55
*1312 FILLER_0_29_57
*1313 FILLER_0_29_69
*1314 FILLER_0_29_73
*1315 FILLER_0_29_77
*1316 FILLER_0_29_87
*1317 FILLER_0_29_95
*1318 FILLER_0_2_109
*1319 FILLER_0_2_121
*1320 FILLER_0_2_133
*1321 FILLER_0_2_139
*1322 FILLER_0_2_141
*1323 FILLER_0_2_15
*1324 FILLER_0_2_153
*1325 FILLER_0_2_165
*1326 FILLER_0_2_177
*1327 FILLER_0_2_189
*1328 FILLER_0_2_195
*1329 FILLER_0_2_197
*1330 FILLER_0_2_209
*1331 FILLER_0_2_221
*1332 FILLER_0_2_233
*1333 FILLER_0_2_245
*1334 FILLER_0_2_251
*1335 FILLER_0_2_253
*1336 FILLER_0_2_265
*1337 FILLER_0_2_27
*1338 FILLER_0_2_277
*1339 FILLER_0_2_289
*1340 FILLER_0_2_29
*1341 FILLER_0_2_3
*1342 FILLER_0_2_301
*1343 FILLER_0_2_307
*1344 FILLER_0_2_309
*1345 FILLER_0_2_321
*1346 FILLER_0_2_333
*1347 FILLER_0_2_345
*1348 FILLER_0_2_41
*1349 FILLER_0_2_53
*1350 FILLER_0_2_65
*1351 FILLER_0_2_77
*1352 FILLER_0_2_83
*1353 FILLER_0_2_85
*1354 FILLER_0_2_97
*1355 FILLER_0_30_101
*1356 FILLER_0_30_129
*1357 FILLER_0_30_149
*1358 FILLER_0_30_15
*1359 FILLER_0_30_166
*1360 FILLER_0_30_184
*1361 FILLER_0_30_219
*1362 FILLER_0_30_227
*1363 FILLER_0_30_245
*1364 FILLER_0_30_251
*1365 FILLER_0_30_253
*1366 FILLER_0_30_265
*1367 FILLER_0_30_27
*1368 FILLER_0_30_290
*1369 FILLER_0_30_3
*1370 FILLER_0_30_302
*1371 FILLER_0_30_32
*1372 FILLER_0_30_47
*1373 FILLER_0_30_51
*1374 FILLER_0_30_55
*1375 FILLER_0_30_69
*1376 FILLER_0_30_77
*1377 FILLER_0_30_81
*1378 FILLER_0_30_85
*1379 FILLER_0_30_89
*1380 FILLER_0_31_107
*1381 FILLER_0_31_127
*1382 FILLER_0_31_139
*1383 FILLER_0_31_147
*1384 FILLER_0_31_15
*1385 FILLER_0_31_167
*1386 FILLER_0_31_183
*1387 FILLER_0_31_223
*1388 FILLER_0_31_225
*1389 FILLER_0_31_23
*1390 FILLER_0_31_248
*1391 FILLER_0_31_260
*1392 FILLER_0_31_29
*1393 FILLER_0_31_3
*1394 FILLER_0_31_304
*1395 FILLER_0_31_321
*1396 FILLER_0_31_33
*1397 FILLER_0_31_335
*1398 FILLER_0_31_337
*1399 FILLER_0_31_347
*1400 FILLER_0_31_42
*1401 FILLER_0_31_48
*1402 FILLER_0_31_57
*1403 FILLER_0_31_75
*1404 FILLER_0_31_87
*1405 FILLER_0_31_99
*1406 FILLER_0_32_11
*1407 FILLER_0_32_134
*1408 FILLER_0_32_141
*1409 FILLER_0_32_153
*1410 FILLER_0_32_163
*1411 FILLER_0_32_175
*1412 FILLER_0_32_183
*1413 FILLER_0_32_213
*1414 FILLER_0_32_299
*1415 FILLER_0_32_3
*1416 FILLER_0_32_338
*1417 FILLER_0_32_34
*1418 FILLER_0_32_348
*1419 FILLER_0_32_94
*1420 FILLER_0_33_109
*1421 FILLER_0_33_113
*1422 FILLER_0_33_125
*1423 FILLER_0_33_137
*1424 FILLER_0_33_162
*1425 FILLER_0_33_169
*1426 FILLER_0_33_181
*1427 FILLER_0_33_214
*1428 FILLER_0_33_222
*1429 FILLER_0_33_258
*1430 FILLER_0_33_270
*1431 FILLER_0_33_276
*1432 FILLER_0_33_291
*1433 FILLER_0_33_3
*1434 FILLER_0_33_303
*1435 FILLER_0_33_331
*1436 FILLER_0_33_335
*1437 FILLER_0_33_340
*1438 FILLER_0_33_347
*1439 FILLER_0_33_47
*1440 FILLER_0_33_55
*1441 FILLER_0_33_61
*1442 FILLER_0_33_7
*1443 FILLER_0_33_73
*1444 FILLER_0_33_85
*1445 FILLER_0_33_97
*1446 FILLER_0_34_100
*1447 FILLER_0_34_121
*1448 FILLER_0_34_141
*1449 FILLER_0_34_15
*1450 FILLER_0_34_150
*1451 FILLER_0_34_173
*1452 FILLER_0_34_185
*1453 FILLER_0_34_193
*1454 FILLER_0_34_197
*1455 FILLER_0_34_205
*1456 FILLER_0_34_234
*1457 FILLER_0_34_243
*1458 FILLER_0_34_25
*1459 FILLER_0_34_259
*1460 FILLER_0_34_267
*1461 FILLER_0_34_299
*1462 FILLER_0_34_3
*1463 FILLER_0_34_307
*1464 FILLER_0_34_309
*1465 FILLER_0_34_32
*1466 FILLER_0_34_340
*1467 FILLER_0_34_348
*1468 FILLER_0_34_44
*1469 FILLER_0_34_52
*1470 FILLER_0_34_72
*1471 FILLER_0_34_85
*1472 FILLER_0_34_89
*1473 FILLER_0_35_122
*1474 FILLER_0_35_134
*1475 FILLER_0_35_149
*1476 FILLER_0_35_15
*1477 FILLER_0_35_181
*1478 FILLER_0_35_203
*1479 FILLER_0_35_211
*1480 FILLER_0_35_217
*1481 FILLER_0_35_257
*1482 FILLER_0_35_262
*1483 FILLER_0_35_27
*1484 FILLER_0_35_3
*1485 FILLER_0_35_300
*1486 FILLER_0_35_311
*1487 FILLER_0_35_337
*1488 FILLER_0_35_349
*1489 FILLER_0_35_39
*1490 FILLER_0_35_47
*1491 FILLER_0_35_57
*1492 FILLER_0_35_77
*1493 FILLER_0_35_89
*1494 FILLER_0_36_121
*1495 FILLER_0_36_129
*1496 FILLER_0_36_141
*1497 FILLER_0_36_15
*1498 FILLER_0_36_153
*1499 FILLER_0_36_179
*1500 FILLER_0_36_205
*1501 FILLER_0_36_256
*1502 FILLER_0_36_27
*1503 FILLER_0_36_29
*1504 FILLER_0_36_3
*1505 FILLER_0_36_314
*1506 FILLER_0_36_338
*1507 FILLER_0_36_342
*1508 FILLER_0_36_41
*1509 FILLER_0_36_82
*1510 FILLER_0_36_85
*1511 FILLER_0_36_97
*1512 FILLER_0_37_101
*1513 FILLER_0_37_111
*1514 FILLER_0_37_118
*1515 FILLER_0_37_126
*1516 FILLER_0_37_15
*1517 FILLER_0_37_151
*1518 FILLER_0_37_159
*1519 FILLER_0_37_189
*1520 FILLER_0_37_197
*1521 FILLER_0_37_209
*1522 FILLER_0_37_238
*1523 FILLER_0_37_261
*1524 FILLER_0_37_269
*1525 FILLER_0_37_27
*1526 FILLER_0_37_3
*1527 FILLER_0_37_348
*1528 FILLER_0_37_39
*1529 FILLER_0_37_47
*1530 FILLER_0_37_73
*1531 FILLER_0_37_85
*1532 FILLER_0_37_93
*1533 FILLER_0_38_102
*1534 FILLER_0_38_106
*1535 FILLER_0_38_110
*1536 FILLER_0_38_113
*1537 FILLER_0_38_118
*1538 FILLER_0_38_122
*1539 FILLER_0_38_126
*1540 FILLER_0_38_130
*1541 FILLER_0_38_134
*1542 FILLER_0_38_14
*1543 FILLER_0_38_144
*1544 FILLER_0_38_150
*1545 FILLER_0_38_154
*1546 FILLER_0_38_158
*1547 FILLER_0_38_162
*1548 FILLER_0_38_166
*1549 FILLER_0_38_169
*1550 FILLER_0_38_174
*1551 FILLER_0_38_18
*1552 FILLER_0_38_186
*1553 FILLER_0_38_194
*1554 FILLER_0_38_197
*1555 FILLER_0_38_209
*1556 FILLER_0_38_217
*1557 FILLER_0_38_22
*1558 FILLER_0_38_230
*1559 FILLER_0_38_249
*1560 FILLER_0_38_253
*1561 FILLER_0_38_265
*1562 FILLER_0_38_277
*1563 FILLER_0_38_281
*1564 FILLER_0_38_286
*1565 FILLER_0_38_290
*1566 FILLER_0_38_294
*1567 FILLER_0_38_3
*1568 FILLER_0_38_32
*1569 FILLER_0_38_347
*1570 FILLER_0_38_38