*SPEF "ieee 1481-1999"
*DESIGN "tt_um_kpwebb_adder"
*DATE "11:11:11 Fri 11 11, 1111"
*VENDOR "OpenRCX"
*PROGRAM "Parallel Extraction"
*VERSION "1.0"
*DESIGN_FLOW "NAME_SCOPE LOCAL" "PIN_CAP NONE"
*DIVIDER /
*DELIMITER :
*BUS_DELIMITER []
*T_UNIT 1 NS
*C_UNIT 1 PF
*R_UNIT 1 OHM
*L_UNIT 1 HENRY

*NAME_MAP
*3 clk
*4 ena
*5 rst_n
*6 ui_in[0]
*7 ui_in[1]
*8 ui_in[2]
*9 ui_in[3]
*10 ui_in[4]
*11 ui_in[5]
*12 ui_in[6]
*13 ui_in[7]
*14 uio_in[0]
*15 uio_in[1]
*16 uio_in[2]
*17 uio_in[3]
*18 uio_in[4]
*19 uio_in[5]
*20 uio_in[6]
*21 uio_in[7]
*22 uio_oe[0]
*23 uio_oe[1]
*24 uio_oe[2]
*25 uio_oe[3]
*26 uio_oe[4]
*27 uio_oe[5]
*28 uio_oe[6]
*29 uio_oe[7]
*30 uio_out[0]
*31 uio_out[1]
*32 uio_out[2]
*33 uio_out[3]
*34 uio_out[4]
*35 uio_out[5]
*36 uio_out[6]
*37 uio_out[7]
*38 uo_out[0]
*39 uo_out[1]
*40 uo_out[2]
*41 uo_out[3]
*42 uo_out[4]
*43 uo_out[5]
*44 uo_out[6]
*45 uo_out[7]
*46 _00_
*47 _01_
*48 _02_
*49 _03_
*50 _04_
*51 _05_
*52 _06_
*53 _07_
*54 _08_
*55 _09_
*56 _10_
*57 _11_
*58 _12_
*59 _13_
*60 _14_
*61 _15_
*62 _16_
*63 _17_
*64 _18_
*65 _19_
*66 _20_
*67 _21_
*68 _22_
*69 _23_
*70 _24_
*71 _25_
*72 _26_
*73 _27_
*74 _28_
*75 clknet_0_clk
*76 clknet_1_0__leaf_clk
*77 clknet_1_1__leaf_clk
*78 my_reg\.d\[0\]
*79 my_reg\.d\[1\]
*80 my_reg\.d\[2\]
*81 my_reg\.d\[3\]
*82 my_reg\.d\[4\]
*83 my_reg\.d\[5\]
*84 my_reg\.d\[6\]
*85 my_reg\.d\[7\]
*86 net1
*87 net10
*88 net11
*89 net12
*90 net13
*91 net14
*92 net15
*93 net16
*94 net2
*95 net3
*96 net4
*97 net5
*98 net6
*99 net7
*100 net8
*101 net9
*102 FILLER_0_0_109
*103 FILLER_0_0_113
*104 FILLER_0_0_125
*105 FILLER_0_0_137
*106 FILLER_0_0_141
*107 FILLER_0_0_15
*108 FILLER_0_0_153
*109 FILLER_0_0_165
*110 FILLER_0_0_169
*111 FILLER_0_0_181
*112 FILLER_0_0_193
*113 FILLER_0_0_197
*114 FILLER_0_0_209
*115 FILLER_0_0_221
*116 FILLER_0_0_225
*117 FILLER_0_0_237
*118 FILLER_0_0_249
*119 FILLER_0_0_253
*120 FILLER_0_0_265
*121 FILLER_0_0_27
*122 FILLER_0_0_277
*123 FILLER_0_0_281
*124 FILLER_0_0_29
*125 FILLER_0_0_293
*126 FILLER_0_0_3
*127 FILLER_0_0_305
*128 FILLER_0_0_309
*129 FILLER_0_0_321
*130 FILLER_0_0_333
*131 FILLER_0_0_337
*132 FILLER_0_0_349
*133 FILLER_0_0_41
*134 FILLER_0_0_53
*135 FILLER_0_0_57
*136 FILLER_0_0_69
*137 FILLER_0_0_81
*138 FILLER_0_0_85
*139 FILLER_0_0_97
*140 FILLER_0_10_109
*141 FILLER_0_10_121
*142 FILLER_0_10_133
*143 FILLER_0_10_139
*144 FILLER_0_10_141
*145 FILLER_0_10_15
*146 FILLER_0_10_153
*147 FILLER_0_10_165
*148 FILLER_0_10_177
*149 FILLER_0_10_189
*150 FILLER_0_10_195
*151 FILLER_0_10_197
*152 FILLER_0_10_209
*153 FILLER_0_10_221
*154 FILLER_0_10_233
*155 FILLER_0_10_245
*156 FILLER_0_10_251
*157 FILLER_0_10_253
*158 FILLER_0_10_265
*159 FILLER_0_10_27
*160 FILLER_0_10_277
*161 FILLER_0_10_289
*162 FILLER_0_10_29
*163 FILLER_0_10_3
*164 FILLER_0_10_301
*165 FILLER_0_10_307
*166 FILLER_0_10_309
*167 FILLER_0_10_321
*168 FILLER_0_10_333
*169 FILLER_0_10_345
*170 FILLER_0_10_41
*171 FILLER_0_10_53
*172 FILLER_0_10_65
*173 FILLER_0_10_77
*174 FILLER_0_10_83
*175 FILLER_0_10_85
*176 FILLER_0_10_97
*177 FILLER_0_11_105
*178 FILLER_0_11_111
*179 FILLER_0_11_113
*180 FILLER_0_11_125
*181 FILLER_0_11_137
*182 FILLER_0_11_149
*183 FILLER_0_11_15
*184 FILLER_0_11_161
*185 FILLER_0_11_167
*186 FILLER_0_11_169
*187 FILLER_0_11_181
*188 FILLER_0_11_193
*189 FILLER_0_11_205
*190 FILLER_0_11_217
*191 FILLER_0_11_223
*192 FILLER_0_11_225
*193 FILLER_0_11_237
*194 FILLER_0_11_249
*195 FILLER_0_11_261
*196 FILLER_0_11_27
*197 FILLER_0_11_273
*198 FILLER_0_11_279
*199 FILLER_0_11_281
*200 FILLER_0_11_293
*201 FILLER_0_11_3
*202 FILLER_0_11_305
*203 FILLER_0_11_317
*204 FILLER_0_11_329
*205 FILLER_0_11_335
*206 FILLER_0_11_337
*207 FILLER_0_11_349
*208 FILLER_0_11_39
*209 FILLER_0_11_51
*210 FILLER_0_11_55
*211 FILLER_0_11_57
*212 FILLER_0_11_69
*213 FILLER_0_11_81
*214 FILLER_0_11_93
*215 FILLER_0_12_109
*216 FILLER_0_12_121
*217 FILLER_0_12_133
*218 FILLER_0_12_139
*219 FILLER_0_12_141
*220 FILLER_0_12_15
*221 FILLER_0_12_153
*222 FILLER_0_12_165
*223 FILLER_0_12_177
*224 FILLER_0_12_189
*225 FILLER_0_12_195
*226 FILLER_0_12_197
*227 FILLER_0_12_209
*228 FILLER_0_12_221
*229 FILLER_0_12_233
*230 FILLER_0_12_245
*231 FILLER_0_12_251
*232 FILLER_0_12_253
*233 FILLER_0_12_265
*234 FILLER_0_12_27
*235 FILLER_0_12_277
*236 FILLER_0_12_289
*237 FILLER_0_12_29
*238 FILLER_0_12_3
*239 FILLER_0_12_301
*240 FILLER_0_12_307
*241 FILLER_0_12_309
*242 FILLER_0_12_321
*243 FILLER_0_12_333
*244 FILLER_0_12_345
*245 FILLER_0_12_41
*246 FILLER_0_12_53
*247 FILLER_0_12_65
*248 FILLER_0_12_77
*249 FILLER_0_12_83
*250 FILLER_0_12_85
*251 FILLER_0_12_97
*252 FILLER_0_13_105
*253 FILLER_0_13_111
*254 FILLER_0_13_113
*255 FILLER_0_13_125
*256 FILLER_0_13_137
*257 FILLER_0_13_149
*258 FILLER_0_13_15
*259 FILLER_0_13_161
*260 FILLER_0_13_167
*261 FILLER_0_13_169
*262 FILLER_0_13_181
*263 FILLER_0_13_193
*264 FILLER_0_13_205
*265 FILLER_0_13_217
*266 FILLER_0_13_223
*267 FILLER_0_13_225
*268 FILLER_0_13_237
*269 FILLER_0_13_249
*270 FILLER_0_13_261
*271 FILLER_0_13_27
*272 FILLER_0_13_273
*273 FILLER_0_13_279
*274 FILLER_0_13_281
*275 FILLER_0_13_293
*276 FILLER_0_13_3
*277 FILLER_0_13_305
*278 FILLER_0_13_317
*279 FILLER_0_13_329
*280 FILLER_0_13_335
*281 FILLER_0_13_337
*282 FILLER_0_13_349
*283 FILLER_0_13_39
*284 FILLER_0_13_51
*285 FILLER_0_13_55
*286 FILLER_0_13_57
*287 FILLER_0_13_69
*288 FILLER_0_13_81
*289 FILLER_0_13_93
*290 FILLER_0_14_109
*291 FILLER_0_14_121
*292 FILLER_0_14_133
*293 FILLER_0_14_139
*294 FILLER_0_14_141
*295 FILLER_0_14_15
*296 FILLER_0_14_153
*297 FILLER_0_14_165
*298 FILLER_0_14_177
*299 FILLER_0_14_189
*300 FILLER_0_14_195
*301 FILLER_0_14_197
*302 FILLER_0_14_209
*303 FILLER_0_14_221
*304 FILLER_0_14_233
*305 FILLER_0_14_245
*306 FILLER_0_14_251
*307 FILLER_0_14_253
*308 FILLER_0_14_265
*309 FILLER_0_14_27
*310 FILLER_0_14_277
*311 FILLER_0_14_289
*312 FILLER_0_14_29
*313 FILLER_0_14_3
*314 FILLER_0_14_301
*315 FILLER_0_14_307
*316 FILLER_0_14_309
*317 FILLER_0_14_321
*318 FILLER_0_14_333
*319 FILLER_0_14_345
*320 FILLER_0_14_41
*321 FILLER_0_14_53
*322 FILLER_0_14_65
*323 FILLER_0_14_77
*324 FILLER_0_14_83
*325 FILLER_0_14_85
*326 FILLER_0_14_97
*327 FILLER_0_15_105
*328 FILLER_0_15_111
*329 FILLER_0_15_113
*330 FILLER_0_15_125
*331 FILLER_0_15_137
*332 FILLER_0_15_149
*333 FILLER_0_15_15
*334 FILLER_0_15_161
*335 FILLER_0_15_167
*336 FILLER_0_15_169
*337 FILLER_0_15_181
*338 FILLER_0_15_193
*339 FILLER_0_15_205
*340 FILLER_0_15_217
*341 FILLER_0_15_223
*342 FILLER_0_15_225
*343 FILLER_0_15_237
*344 FILLER_0_15_249
*345 FILLER_0_15_261
*346 FILLER_0_15_27
*347 FILLER_0_15_273
*348 FILLER_0_15_279
*349 FILLER_0_15_281
*350 FILLER_0_15_293
*351 FILLER_0_15_3
*352 FILLER_0_15_305
*353 FILLER_0_15_317
*354 FILLER_0_15_329
*355 FILLER_0_15_335
*356 FILLER_0_15_337
*357 FILLER_0_15_349
*358 FILLER_0_15_39
*359 FILLER_0_15_51
*360 FILLER_0_15_55
*361 FILLER_0_15_57
*362 FILLER_0_15_69
*363 FILLER_0_15_81
*364 FILLER_0_15_93
*365 FILLER_0_16_109
*366 FILLER_0_16_121
*367 FILLER_0_16_133
*368 FILLER_0_16_139
*369 FILLER_0_16_141
*370 FILLER_0_16_15
*371 FILLER_0_16_153
*372 FILLER_0_16_165
*373 FILLER_0_16_177
*374 FILLER_0_16_189
*375 FILLER_0_16_195
*376 FILLER_0_16_197
*377 FILLER_0_16_209
*378 FILLER_0_16_221
*379 FILLER_0_16_233
*380 FILLER_0_16_245
*381 FILLER_0_16_251
*382 FILLER_0_16_253
*383 FILLER_0_16_265
*384 FILLER_0_16_27
*385 FILLER_0_16_277
*386 FILLER_0_16_289
*387 FILLER_0_16_29
*388 FILLER_0_16_3
*389 FILLER_0_16_301
*390 FILLER_0_16_307
*391 FILLER_0_16_309
*392 FILLER_0_16_321
*393 FILLER_0_16_333
*394 FILLER_0_16_345
*395 FILLER_0_16_41
*396 FILLER_0_16_53
*397 FILLER_0_16_65
*398 FILLER_0_16_77
*399 FILLER_0_16_83
*400 FILLER_0_16_85
*401 FILLER_0_16_97
*402 FILLER_0_17_105
*403 FILLER_0_17_111
*404 FILLER_0_17_113
*405 FILLER_0_17_125
*406 FILLER_0_17_137
*407 FILLER_0_17_149
*408 FILLER_0_17_15
*409 FILLER_0_17_161
*410 FILLER_0_17_167
*411 FILLER_0_17_169
*412 FILLER_0_17_181
*413 FILLER_0_17_193
*414 FILLER_0_17_205
*415 FILLER_0_17_217
*416 FILLER_0_17_223
*417 FILLER_0_17_225
*418 FILLER_0_17_237
*419 FILLER_0_17_249
*420 FILLER_0_17_261
*421 FILLER_0_17_27
*422 FILLER_0_17_273
*423 FILLER_0_17_279
*424 FILLER_0_17_281
*425 FILLER_0_17_293
*426 FILLER_0_17_3
*427 FILLER_0_17_305
*428 FILLER_0_17_317
*429 FILLER_0_17_329
*430 FILLER_0_17_335
*431 FILLER_0_17_337
*432 FILLER_0_17_349
*433 FILLER_0_17_39
*434 FILLER_0_17_51
*435 FILLER_0_17_55
*436 FILLER_0_17_57
*437 FILLER_0_17_69
*438 FILLER_0_17_81
*439 FILLER_0_17_93
*440 FILLER_0_18_109
*441 FILLER_0_18_121
*442 FILLER_0_18_133
*443 FILLER_0_18_139
*444 FILLER_0_18_141
*445 FILLER_0_18_15
*446 FILLER_0_18_153
*447 FILLER_0_18_165
*448 FILLER_0_18_177
*449 FILLER_0_18_189
*450 FILLER_0_18_195
*451 FILLER_0_18_197
*452 FILLER_0_18_209
*453 FILLER_0_18_221
*454 FILLER_0_18_233
*455 FILLER_0_18_245
*456 FILLER_0_18_251
*457 FILLER_0_18_253
*458 FILLER_0_18_265
*459 FILLER_0_18_27
*460 FILLER_0_18_277
*461 FILLER_0_18_289
*462 FILLER_0_18_29
*463 FILLER_0_18_3
*464 FILLER_0_18_301
*465 FILLER_0_18_307
*466 FILLER_0_18_309
*467 FILLER_0_18_321
*468 FILLER_0_18_333
*469 FILLER_0_18_345
*470 FILLER_0_18_41
*471 FILLER_0_18_53
*472 FILLER_0_18_65
*473 FILLER_0_18_77
*474 FILLER_0_18_83
*475 FILLER_0_18_85
*476 FILLER_0_18_97
*477 FILLER_0_19_105
*478 FILLER_0_19_111
*479 FILLER_0_19_113
*480 FILLER_0_19_125
*481 FILLER_0_19_137
*482 FILLER_0_19_149
*483 FILLER_0_19_15
*484 FILLER_0_19_161
*485 FILLER_0_19_167
*486 FILLER_0_19_169
*487 FILLER_0_19_181
*488 FILLER_0_19_193
*489 FILLER_0_19_205
*490 FILLER_0_19_217
*491 FILLER_0_19_223
*492 FILLER_0_19_225
*493 FILLER_0_19_237
*494 FILLER_0_19_249
*495 FILLER_0_19_261
*496 FILLER_0_19_27
*497 FILLER_0_19_273
*498 FILLER_0_19_279
*499 FILLER_0_19_281
*500 FILLER_0_19_293
*501 FILLER_0_19_3
*502 FILLER_0_19_305
*503 FILLER_0_19_317
*504 FILLER_0_19_329
*505 FILLER_0_19_335
*506 FILLER_0_19_337
*507 FILLER_0_19_349
*508 FILLER_0_19_39
*509 FILLER_0_19_51
*510 FILLER_0_19_55
*511 FILLER_0_19_57
*512 FILLER_0_19_69
*513 FILLER_0_19_81
*514 FILLER_0_19_93
*515 FILLER_0_1_105
*516 FILLER_0_1_111
*517 FILLER_0_1_113
*518 FILLER_0_1_125
*519 FILLER_0_1_137
*520 FILLER_0_1_149
*521 FILLER_0_1_15
*522 FILLER_0_1_161
*523 FILLER_0_1_167
*524 FILLER_0_1_169
*525 FILLER_0_1_181
*526 FILLER_0_1_193
*527 FILLER_0_1_205
*528 FILLER_0_1_217
*529 FILLER_0_1_223
*530 FILLER_0_1_225
*531 FILLER_0_1_237
*532 FILLER_0_1_249
*533 FILLER_0_1_261
*534 FILLER_0_1_27
*535 FILLER_0_1_273
*536 FILLER_0_1_279
*537 FILLER_0_1_281
*538 FILLER_0_1_293
*539 FILLER_0_1_3
*540 FILLER_0_1_305
*541 FILLER_0_1_317
*542 FILLER_0_1_329
*543 FILLER_0_1_335
*544 FILLER_0_1_337
*545 FILLER_0_1_349
*546 FILLER_0_1_39
*547 FILLER_0_1_51
*548 FILLER_0_1_55
*549 FILLER_0_1_57
*550 FILLER_0_1_69
*551 FILLER_0_1_81
*552 FILLER_0_1_93
*553 FILLER_0_20_109
*554 FILLER_0_20_121
*555 FILLER_0_20_133
*556 FILLER_0_20_139
*557 FILLER_0_20_141
*558 FILLER_0_20_15
*559 FILLER_0_20_153
*560 FILLER_0_20_165
*561 FILLER_0_20_177
*562 FILLER_0_20_189
*563 FILLER_0_20_195
*564 FILLER_0_20_197
*565 FILLER_0_20_209
*566 FILLER_0_20_221
*567 FILLER_0_20_233
*568 FILLER_0_20_245
*569 FILLER_0_20_251
*570 FILLER_0_20_253
*571 FILLER_0_20_265
*572 FILLER_0_20_27
*573 FILLER_0_20_277
*574 FILLER_0_20_289
*575 FILLER_0_20_29
*576 FILLER_0_20_3
*577 FILLER_0_20_301
*578 FILLER_0_20_307
*579 FILLER_0_20_309
*580 FILLER_0_20_321
*581 FILLER_0_20_333
*582 FILLER_0_20_345
*583 FILLER_0_20_41
*584 FILLER_0_20_53
*585 FILLER_0_20_65
*586 FILLER_0_20_77
*587 FILLER_0_20_83
*588 FILLER_0_20_85
*589 FILLER_0_20_97
*590 FILLER_0_21_105
*591 FILLER_0_21_111
*592 FILLER_0_21_113
*593 FILLER_0_21_125
*594 FILLER_0_21_137
*595 FILLER_0_21_149
*596 FILLER_0_21_15
*597 FILLER_0_21_161
*598 FILLER_0_21_167
*599 FILLER_0_21_169
*600 FILLER_0_21_181
*601 FILLER_0_21_193
*602 FILLER_0_21_205
*603 FILLER_0_21_217
*604 FILLER_0_21_223
*605 FILLER_0_21_225
*606 FILLER_0_21_237
*607 FILLER_0_21_249
*608 FILLER_0_21_261
*609 FILLER_0_21_27
*610 FILLER_0_21_273
*611 FILLER_0_21_279
*612 FILLER_0_21_281
*613 FILLER_0_21_293
*614 FILLER_0_21_3
*615 FILLER_0_21_305
*616 FILLER_0_21_317
*617 FILLER_0_21_329
*618 FILLER_0_21_335
*619 FILLER_0_21_337
*620 FILLER_0_21_349
*621 FILLER_0_21_39
*622 FILLER_0_21_51
*623 FILLER_0_21_55
*624 FILLER_0_21_57
*625 FILLER_0_21_69
*626 FILLER_0_21_81
*627 FILLER_0_21_93
*628 FILLER_0_22_109
*629 FILLER_0_22_121
*630 FILLER_0_22_133
*631 FILLER_0_22_139
*632 FILLER_0_22_141
*633 FILLER_0_22_15
*634 FILLER_0_22_153
*635 FILLER_0_22_165
*636 FILLER_0_22_177
*637 FILLER_0_22_189
*638 FILLER_0_22_195
*639 FILLER_0_22_197
*640 FILLER_0_22_209
*641 FILLER_0_22_221
*642 FILLER_0_22_233
*643 FILLER_0_22_245
*644 FILLER_0_22_251
*645 FILLER_0_22_253
*646 FILLER_0_22_265
*647 FILLER_0_22_27
*648 FILLER_0_22_277
*649 FILLER_0_22_289
*650 FILLER_0_22_29
*651 FILLER_0_22_3
*652 FILLER_0_22_301
*653 FILLER_0_22_307
*654 FILLER_0_22_309
*655 FILLER_0_22_321
*656 FILLER_0_22_333
*657 FILLER_0_22_345
*658 FILLER_0_22_41
*659 FILLER_0_22_53
*660 FILLER_0_22_65
*661 FILLER_0_22_77
*662 FILLER_0_22_83
*663 FILLER_0_22_85
*664 FILLER_0_22_97
*665 FILLER_0_23_105
*666 FILLER_0_23_111
*667 FILLER_0_23_113
*668 FILLER_0_23_125
*669 FILLER_0_23_137
*670 FILLER_0_23_149
*671 FILLER_0_23_15
*672 FILLER_0_23_161
*673 FILLER_0_23_167
*674 FILLER_0_23_169
*675 FILLER_0_23_181
*676 FILLER_0_23_193
*677 FILLER_0_23_205
*678 FILLER_0_23_217
*679 FILLER_0_23_223
*680 FILLER_0_23_225
*681 FILLER_0_23_237
*682 FILLER_0_23_249
*683 FILLER_0_23_261
*684 FILLER_0_23_27
*685 FILLER_0_23_273
*686 FILLER_0_23_279
*687 FILLER_0_23_281
*688 FILLER_0_23_293
*689 FILLER_0_23_3
*690 FILLER_0_23_305
*691 FILLER_0_23_317
*692 FILLER_0_23_329
*693 FILLER_0_23_335
*694 FILLER_0_23_337
*695 FILLER_0_23_349
*696 FILLER_0_23_39
*697 FILLER_0_23_51
*698 FILLER_0_23_55
*699 FILLER_0_23_57
*700 FILLER_0_23_69
*701 FILLER_0_23_81
*702 FILLER_0_23_93
*703 FILLER_0_24_109
*704 FILLER_0_24_121
*705 FILLER_0_24_133
*706 FILLER_0_24_139
*707 FILLER_0_24_141
*708 FILLER_0_24_15
*709 FILLER_0_24_153
*710 FILLER_0_24_165
*711 FILLER_0_24_177
*712 FILLER_0_24_189
*713 FILLER_0_24_195
*714 FILLER_0_24_197
*715 FILLER_0_24_209
*716 FILLER_0_24_221
*717 FILLER_0_24_233
*718 FILLER_0_24_245
*719 FILLER_0_24_251
*720 FILLER_0_24_253
*721 FILLER_0_24_265
*722 FILLER_0_24_27
*723 FILLER_0_24_277
*724 FILLER_0_24_289
*725 FILLER_0_24_29
*726 FILLER_0_24_3
*727 FILLER_0_24_301
*728 FILLER_0_24_307
*729 FILLER_0_24_309
*730 FILLER_0_24_321
*731 FILLER_0_24_333
*732 FILLER_0_24_345
*733 FILLER_0_24_41
*734 FILLER_0_24_53
*735 FILLER_0_24_65
*736 FILLER_0_24_77
*737 FILLER_0_24_83
*738 FILLER_0_24_85
*739 FILLER_0_24_97
*740 FILLER_0_25_105
*741 FILLER_0_25_111
*742 FILLER_0_25_113
*743 FILLER_0_25_125
*744 FILLER_0_25_137
*745 FILLER_0_25_149
*746 FILLER_0_25_15
*747 FILLER_0_25_161
*748 FILLER_0_25_167
*749 FILLER_0_25_169
*750 FILLER_0_25_181
*751 FILLER_0_25_193
*752 FILLER_0_25_205
*753 FILLER_0_25_217
*754 FILLER_0_25_223
*755 FILLER_0_25_225
*756 FILLER_0_25_237
*757 FILLER_0_25_249
*758 FILLER_0_25_261
*759 FILLER_0_25_27
*760 FILLER_0_25_273
*761 FILLER_0_25_279
*762 FILLER_0_25_281
*763 FILLER_0_25_293
*764 FILLER_0_25_3
*765 FILLER_0_25_305
*766 FILLER_0_25_317
*767 FILLER_0_25_329
*768 FILLER_0_25_335
*769 FILLER_0_25_337
*770 FILLER_0_25_349
*771 FILLER_0_25_39
*772 FILLER_0_25_51
*773 FILLER_0_25_55
*774 FILLER_0_25_57
*775 FILLER_0_25_69
*776 FILLER_0_25_81
*777 FILLER_0_25_93
*778 FILLER_0_26_109
*779 FILLER_0_26_121
*780 FILLER_0_26_133
*781 FILLER_0_26_139
*782 FILLER_0_26_141
*783 FILLER_0_26_15
*784 FILLER_0_26_153
*785 FILLER_0_26_165
*786 FILLER_0_26_177
*787 FILLER_0_26_189
*788 FILLER_0_26_195
*789 FILLER_0_26_197
*790 FILLER_0_26_209
*791 FILLER_0_26_221
*792 FILLER_0_26_233
*793 FILLER_0_26_245
*794 FILLER_0_26_251
*795 FILLER_0_26_253
*796 FILLER_0_26_265
*797 FILLER_0_26_27
*798 FILLER_0_26_277
*799 FILLER_0_26_289
*800 FILLER_0_26_29
*801 FILLER_0_26_3
*802 FILLER_0_26_301
*803 FILLER_0_26_307
*804 FILLER_0_26_309
*805 FILLER_0_26_321
*806 FILLER_0_26_333
*807 FILLER_0_26_345
*808 FILLER_0_26_41
*809 FILLER_0_26_53
*810 FILLER_0_26_65
*811 FILLER_0_26_77
*812 FILLER_0_26_83
*813 FILLER_0_26_85
*814 FILLER_0_26_97
*815 FILLER_0_27_105
*816 FILLER_0_27_111
*817 FILLER_0_27_113
*818 FILLER_0_27_125
*819 FILLER_0_27_137
*820 FILLER_0_27_149
*821 FILLER_0_27_15
*822 FILLER_0_27_161
*823 FILLER_0_27_167
*824 FILLER_0_27_169
*825 FILLER_0_27_181
*826 FILLER_0_27_193
*827 FILLER_0_27_205
*828 FILLER_0_27_217
*829 FILLER_0_27_223
*830 FILLER_0_27_225
*831 FILLER_0_27_237
*832 FILLER_0_27_249
*833 FILLER_0_27_261
*834 FILLER_0_27_27
*835 FILLER_0_27_273
*836 FILLER_0_27_279
*837 FILLER_0_27_281
*838 FILLER_0_27_293
*839 FILLER_0_27_3
*840 FILLER_0_27_305
*841 FILLER_0_27_317
*842 FILLER_0_27_329
*843 FILLER_0_27_335
*844 FILLER_0_27_337
*845 FILLER_0_27_349
*846 FILLER_0_27_39
*847 FILLER_0_27_51
*848 FILLER_0_27_55
*849 FILLER_0_27_57
*850 FILLER_0_27_69
*851 FILLER_0_27_81
*852 FILLER_0_27_93
*853 FILLER_0_28_109
*854 FILLER_0_28_121
*855 FILLER_0_28_133
*856 FILLER_0_28_139
*857 FILLER_0_28_141
*858 FILLER_0_28_15
*859 FILLER_0_28_153
*860 FILLER_0_28_165
*861 FILLER_0_28_177
*862 FILLER_0_28_189
*863 FILLER_0_28_195
*864 FILLER_0_28_197
*865 FILLER_0_28_209
*866 FILLER_0_28_221
*867 FILLER_0_28_233
*868 FILLER_0_28_245
*869 FILLER_0_28_251
*870 FILLER_0_28_253
*871 FILLER_0_28_265
*872 FILLER_0_28_27
*873 FILLER_0_28_277
*874 FILLER_0_28_289
*875 FILLER_0_28_29
*876 FILLER_0_28_3
*877 FILLER_0_28_301
*878 FILLER_0_28_307
*879 FILLER_0_28_309
*880 FILLER_0_28_321
*881 FILLER_0_28_333
*882 FILLER_0_28_345
*883 FILLER_0_28_41
*884 FILLER_0_28_53
*885 FILLER_0_28_65
*886 FILLER_0_28_77
*887 FILLER_0_28_83
*888 FILLER_0_28_85
*889 FILLER_0_28_97
*890 FILLER_0_29_105
*891 FILLER_0_29_111
*892 FILLER_0_29_113
*893 FILLER_0_29_125
*894 FILLER_0_29_137
*895 FILLER_0_29_149
*896 FILLER_0_29_15
*897 FILLER_0_29_161
*898 FILLER_0_29_167
*899 FILLER_0_29_169
*900 FILLER_0_29_181
*901 FILLER_0_29_193
*902 FILLER_0_29_205
*903 FILLER_0_29_217
*904 FILLER_0_29_223
*905 FILLER_0_29_225
*906 FILLER_0_29_237
*907 FILLER_0_29_249
*908 FILLER_0_29_261
*909 FILLER_0_29_27
*910 FILLER_0_29_273
*911 FILLER_0_29_279
*912 FILLER_0_29_281
*913 FILLER_0_29_293
*914 FILLER_0_29_3
*915 FILLER_0_29_305
*916 FILLER_0_29_317
*917 FILLER_0_29_329
*918 FILLER_0_29_335
*919 FILLER_0_29_337
*920 FILLER_0_29_349
*921 FILLER_0_29_39
*922 FILLER_0_29_51
*923 FILLER_0_29_55
*924 FILLER_0_29_57
*925 FILLER_0_29_69
*926 FILLER_0_29_81
*927 FILLER_0_29_93
*928 FILLER_0_2_109
*929 FILLER_0_2_121
*930 FILLER_0_2_133
*931 FILLER_0_2_139
*932 FILLER_0_2_141
*933 FILLER_0_2_15
*934 FILLER_0_2_153
*935 FILLER_0_2_165
*936 FILLER_0_2_177
*937 FILLER_0_2_189
*938 FILLER_0_2_195
*939 FILLER_0_2_197
*940 FILLER_0_2_209
*941 FILLER_0_2_221
*942 FILLER_0_2_233
*943 FILLER_0_2_245
*944 FILLER_0_2_251
*945 FILLER_0_2_253
*946 FILLER_0_2_265
*947 FILLER_0_2_27
*948 FILLER_0_2_277
*949 FILLER_0_2_289
*950 FILLER_0_2_29
*951 FILLER_0_2_3
*952 FILLER_0_2_301
*953 FILLER_0_2_307
*954 FILLER_0_2_309
*955 FILLER_0_2_321
*956 FILLER_0_2_333
*957 FILLER_0_2_345
*958 FILLER_0_2_41
*959 FILLER_0_2_53
*960 FILLER_0_2_65
*961 FILLER_0_2_77
*962 FILLER_0_2_83
*963 FILLER_0_2_85
*964 FILLER_0_2_97
*965 FILLER_0_30_109
*966 FILLER_0_30_121
*967 FILLER_0_30_133
*968 FILLER_0_30_139
*969 FILLER_0_30_141
*970 FILLER_0_30_15
*971 FILLER_0_30_153
*972 FILLER_0_30_165
*973 FILLER_0_30_177
*974 FILLER_0_30_189
*975 FILLER_0_30_195
*976 FILLER_0_30_197
*977 FILLER_0_30_209
*978 FILLER_0_30_221
*979 FILLER_0_30_233
*980 FILLER_0_30_245
*981 FILLER_0_30_251
*982 FILLER_0_30_253
*983 FILLER_0_30_265
*984 FILLER_0_30_27
*985 FILLER_0_30_277
*986 FILLER_0_30_289
*987 FILLER_0_30_29
*988 FILLER_0_30_3
*989 FILLER_0_30_301
*990 FILLER_0_30_307
*991 FILLER_0_30_309
*992 FILLER_0_30_321
*993 FILLER_0_30_333
*994 FILLER_0_30_345
*995 FILLER_0_30_41
*996 FILLER_0_30_53
*997 FILLER_0_30_65
*998 FILLER_0_30_77
*999 FILLER_0_30_83
*1000 FILLER_0_30_85
*1001 FILLER_0_30_97
*1002 FILLER_0_31_105
*1003 FILLER_0_31_111
*1004 FILLER_0_31_113
*1005 FILLER_0_31_125
*1006 FILLER_0_31_137
*1007 FILLER_0_31_149
*1008 FILLER_0_31_15
*1009 FILLER_0_31_161
*1010 FILLER_0_31_167
*1011 FILLER_0_31_169
*1012 FILLER_0_31_181
*1013 FILLER_0_31_193
*1014 FILLER_0_31_205
*1015 FILLER_0_31_217
*1016 FILLER_0_31_223
*1017 FILLER_0_31_225
*1018 FILLER_0_31_237
*1019 FILLER_0_31_249
*1020 FILLER_0_31_261
*1021 FILLER_0_31_27
*1022 FILLER_0_31_273
*1023 FILLER_0_31_279
*1024 FILLER_0_31_281
*1025 FILLER_0_31_293
*1026 FILLER_0_31_3
*1027 FILLER_0_31_305
*1028 FILLER_0_31_317
*1029 FILLER_0_31_329
*1030 FILLER_0_31_335
*1031 FILLER_0_31_337
*1032 FILLER_0_31_349
*1033 FILLER_0_31_39
*1034 FILLER_0_31_51
*1035 FILLER_0_31_55
*1036 FILLER_0_31_57
*1037 FILLER_0_31_69
*1038 FILLER_0_31_81
*1039 FILLER_0_31_93
*1040 FILLER_0_32_109
*1041 FILLER_0_32_121
*1042 FILLER_0_32_133
*1043 FILLER_0_32_139
*1044 FILLER_0_32_141
*1045 FILLER_0_32_15
*1046 FILLER_0_32_153
*1047 FILLER_0_32_165
*1048 FILLER_0_32_177
*1049 FILLER_0_32_189
*1050 FILLER_0_32_195
*1051 FILLER_0_32_217
*1052 FILLER_0_32_229
*1053 FILLER_0_32_241
*1054 FILLER_0_32_249
*1055 FILLER_0_32_27
*1056 FILLER_0_32_273
*1057 FILLER_0_32_285
*1058 FILLER_0_32_29
*1059 FILLER_0_32_297
*1060 FILLER_0_32_3
*1061 FILLER_0_32_305
*1062 FILLER_0_32_309
*1063 FILLER_0_32_321
*1064 FILLER_0_32_333
*1065 FILLER_0_32_345
*1066 FILLER_0_32_41
*1067 FILLER_0_32_53
*1068 FILLER_0_32_65
*1069 FILLER_0_32_77
*1070 FILLER_0_32_83
*1071 FILLER_0_32_85
*1072 FILLER_0_32_97
*1073 FILLER_0_33_105
*1074 FILLER_0_33_111
*1075 FILLER_0_33_113
*1076 FILLER_0_33_125
*1077 FILLER_0_33_137
*1078 FILLER_0_33_149
*1079 FILLER_0_33_15
*1080 FILLER_0_33_161
*1081 FILLER_0_33_167
*1082 FILLER_0_33_169
*1083 FILLER_0_33_181
*1084 FILLER_0_33_193
*1085 FILLER_0_33_205
*1086 FILLER_0_33_217
*1087 FILLER_0_33_223
*1088 FILLER_0_33_225
*1089 FILLER_0_33_237
*1090 FILLER_0_33_249
*1091 FILLER_0_33_261
*1092 FILLER_0_33_27
*1093 FILLER_0_33_273
*1094 FILLER_0_33_279
*1095 FILLER_0_33_281
*1096 FILLER_0_33_293
*1097 FILLER_0_33_3
*1098 FILLER_0_33_305
*1099 FILLER_0_33_317
*1100 FILLER_0_33_329
*1101 FILLER_0_33_335
*1102 FILLER_0_33_337
*1103 FILLER_0_33_349
*1104 FILLER_0_33_39
*1105 FILLER_0_33_51
*1106 FILLER_0_33_55
*1107 FILLER_0_33_57
*1108 FILLER_0_33_69
*1109 FILLER_0_33_81
*1110 FILLER_0_33_93
*1111 FILLER_0_34_109
*1112 FILLER_0_34_121
*1113 FILLER_0_34_133
*1114 FILLER_0_34_139
*1115 FILLER_0_34_141
*1116 FILLER_0_34_15
*1117 FILLER_0_34_153
*1118 FILLER_0_34_165
*1119 FILLER_0_34_177
*1120 FILLER_0_34_189
*1121 FILLER_0_34_195
*1122 FILLER_0_34_197
*1123 FILLER_0_34_209
*1124 FILLER_0_34_221
*1125 FILLER_0_34_233
*1126 FILLER_0_34_245
*1127 FILLER_0_34_251
*1128 FILLER_0_34_253
*1129 FILLER_0_34_265
*1130 FILLER_0_34_27
*1131 FILLER_0_34_277
*1132 FILLER_0_34_289
*1133 FILLER_0_34_29
*1134 FILLER_0_34_3
*1135 FILLER_0_34_301
*1136 FILLER_0_34_307
*1137 FILLER_0_34_309
*1138 FILLER_0_34_321
*1139 FILLER_0_34_333
*1140 FILLER_0_34_345
*1141 FILLER_0_34_41
*1142 FILLER_0_34_53
*1143 FILLER_0_34_65
*1144 FILLER_0_34_77
*1145 FILLER_0_34_83
*1146 FILLER_0_34_85
*1147 FILLER_0_34_97
*1148 FILLER_0_35_105
*1149 FILLER_0_35_111
*1150 FILLER_0_35_113
*1151 FILLER_0_35_125
*1152 FILLER_0_35_129
*1153 FILLER_0_35_15
*1154 FILLER_0_35_169
*1155 FILLER_0_35_181
*1156 FILLER_0_35_193
*1157 FILLER_0_35_205
*1158 FILLER_0_35_218
*1159 FILLER_0_35_236
*1160 FILLER_0_35_244
*1161 FILLER_0_35_252
*1162 FILLER_0_35_257
*1163 FILLER_0_35_269
*1164 FILLER_0_35_27
*1165 FILLER_0_35_277
*1166 FILLER_0_35_3
*1167 FILLER_0_35_300
*1168 FILLER_0_35_312
*1169 FILLER_0_35_324
*1170 FILLER_0_35_337
*1171 FILLER_0_35_349
*1172 FILLER_0_35_39
*1173 FILLER_0_35_51
*1174 FILLER_0_35_55
*1175 FILLER_0_35_57
*1176 FILLER_0_35_69
*1177 FILLER_0_35_81
*1178 FILLER_0_35_93
*1179 FILLER_0_36_109
*1180 FILLER_0_36_121
*1181 FILLER_0_36_133
*1182 FILLER_0_36_139
*1183 FILLER_0_36_141
*1184 FILLER_0_36_15
*1185 FILLER_0_36_153
*1186 FILLER_0_36_161
*1187 FILLER_0_36_207
*1188 FILLER_0_36_220
*1189 FILLER_0_36_232
*1190 FILLER_0_36_251
*1191 FILLER_0_36_253
*1192 FILLER_0_36_260
*1193 FILLER_0_36_27
*1194 FILLER_0_36_270
*1195 FILLER_0_36_282
*1196 FILLER_0_36_29
*1197 FILLER_0_36_294
*1198 FILLER_0_36_3
*1199 FILLER_0_36_302
*1200 FILLER_0_36_309
*1201 FILLER_0_36_321
*1202 FILLER_0_36_342
*1203 FILLER_0_36_350
*1204 FILLER_0_36_41
*1205 FILLER_0_36_53
*1206 FILLER_0_36_65
*1207 FILLER_0_36_77
*1208 FILLER_0_36_83
*1209 FILLER_0_36_85
*1210 FILLER_0_36_97
*1211 FILLER_0_37_105
*1212 FILLER_0_37_111
*1213 FILLER_0_37_113
*1214 FILLER_0_37_125
*1215 FILLER_0_37_129
*1216 FILLER_0_37_15
*1217 FILLER_0_37_169
*1218 FILLER_0_37_181
*1219 FILLER_0_37_193
*1220 FILLER_0_37_205
*1221 FILLER_0_37_217
*1222 FILLER_0_37_236
*1223 FILLER_0_37_27
*1224 FILLER_0_37_271
*1225 FILLER_0_37_279
*1226 FILLER_0_37_281
*1227 FILLER_0_37_288
*1228 FILLER_0_37_3
*1229 FILLER_0_37_329
*1230 FILLER_0_37_335
*1231 FILLER_0_37_337
*1232 FILLER_0_37_349
*1233 FILLER_0_37_39
*1234 FILLER_0_37_51
*1235 FILLER_0_37_55
*1236 FILLER_0_37_57
*1237 FILLER_0_37_69
*1238 FILLER_0_37_81
*1239 FILLER_0_37_93
*1240 FILLER_0_38_101
*1241 FILLER_0_38_109
*1242 FILLER_0_38_117
*1243 FILLER_0_38_124
*1244 FILLER_0_38_131
*1245 FILLER_0_38_139
*1246 FILLER_0_38_141
*1247 FILLER_0_38_147
*1248 FILLER_0_38_15
*1249 FILLER_0_38_153
*1250 FILLER_0_38_159
*1251 FILLER_0_38_164
*1252 FILLER_0_38_173
*1253 FILLER_0_38_179
*1254 FILLER_0_38_183
*1255 FILLER_0_38_191
*1256 FILLER_0_38_222
*1257 FILLER_0_38_228
*1258 FILLER_0_38_250
*1259 FILLER_0_38_262
*1260 FILLER_0_38_27
*1261 FILLER_0_38_278
*1262 FILLER_0_38_29
*1263 FILLER_0_38_3
*1264 FILLER_0_38_306
*1265 FILLER_0_38_335
*1266 FILLER_0_38_337
*1267 FILLER_0_38_349
*1268 FILLER_0_38_41
*1269 FILLER_0_38_53
*1270 FILLER_0_38_57
*1271 FILLER_0_38_69
*1272 FILLER_0_38_76
*1273 FILLER_0_38_83
*1274 FILLER_0_38_85
*1275 FILLER_0_38_92
*1276 FILLER_0_38_96
*1277 FILLER_0_3_105
*1278 FILLER_0_3_111
*1279 FILLER_0_3_113
*1280 FILLER_0_3_125
*1281 FILLER_0_3_137
*1282 FILLER_0_3_149
*1283 FILLER_0_3_15
*1284 FILLER_0_3_161
*1285 FILLER_0_3_167
*1286 FILLER_0_3_169
*1287 FILLER_0_3_181
*1288 FILLER_0_3_193
*1289 FILLER_0_3_205
*1290 FILLER_0_3_217
*1291 FILLER_0_3_223
*1292 FILLER_0_3_225
*1293 FILLER_0_3_237
*1294 FILLER_0_3_249
*1295 FILLER_0_3_261
*1296 FILLER_0_3_27
*1297 FILLER_0_3_273
*1298 FILLER_0_3_279
*1299 FILLER_0_3_281
*1300 FILLER_0_3_293
*1301 FILLER_0_3_3
*1302 FILLER_0_3_305
*1303 FILLER_0_3_317
*1304 FILLER_0_3_329
*1305 FILLER_0_3_335
*1306 FILLER_0_3_337
*1307 FILLER_0_3_349
*1308 FILLER_0_3_39
*1309 FILLER_0_3_51
*1310 FILLER_0_3_55
*1311 FILLER_0_3_57
*1312 FILLER_0_3_69
*1313 FILLER_0_3_81
*1314 FILLER_0_3_93
*1315 FILLER_0_4_109
*1316 FILLER_0_4_121
*1317 FILLER_0_4_133
*1318 FILLER_0_4_139
*1319 FILLER_0_4_141
*1320 FILLER_0_4_15
*1321 FILLER_0_4_153
*1322 FILLER_0_4_165
*1323 FILLER_0_4_177
*1324 FILLER_0_4_189
*1325 FILLER_0_4_195
*1326 FILLER_0_4_197
*1327 FILLER_0_4_209
*1328 FILLER_0_4_221
*1329 FILLER_0_4_233
*1330 FILLER_0_4_245
*1331 FILLER_0_4_251
*1332 FILLER_0_4_253
*1333 FILLER_0_4_265
*1334 FILLER_0_4_27
*1335 FILLER_0_4_277
*1336 FILLER_0_4_289
*1337 FILLER_0_4_29
*1338 FILLER_0_4_3
*1339 FILLER_0_4_301
*1340 FILLER_0_4_307
*1341 FILLER_0_4_309
*1342 FILLER_0_4_321
*1343 FILLER_0_4_333
*1344 FILLER_0_4_345
*1345 FILLER_0_4_41
*1346 FILLER_0_4_53
*1347 FILLER_0_4_65
*1348 FILLER_0_4_77
*1349 FILLER_0_4_83
*1350 FILLER_0_4_85
*1351 FILLER_0_4_97
*1352 FILLER_0_5_105
*1353 FILLER_0_5_111
*1354 FILLER_0_5_113
*1355 FILLER_0_5_125
*1356 FILLER_0_5_137
*1357 FILLER_0_5_149
*1358 FILLER_0_5_15
*1359 FILLER_0_5_161
*1360 FILLER_0_5_167
*1361 FILLER_0_5_169
*1362 FILLER_0_5_181
*1363 FILLER_0_5_193
*1364 FILLER_0_5_205
*1365 FILLER_0_5_217
*1366 FILLER_0_5_223
*1367 FILLER_0_5_225
*1368 FILLER_0_5_237
*1369 FILLER_0_5_249
*1370 FILLER_0_5_261
*1371 FILLER_0_5_27
*1372 FILLER_0_5_273
*1373 FILLER_0_5_279
*1374 FILLER_0_5_281
*1375 FILLER_0_5_293
*1376 FILLER_0_5_3
*1377 FILLER_0_5_305
*1378 FILLER_0_5_317
*1379 FILLER_0_5_329
*1380 FILLER_0_5_335
*1381 FILLER_0_5_337
*1382 FILLER_0_5_349
*1383 FILLER_0_5_39
*1384 FILLER_0_5_51
*1385 FILLER_0_5_55
*1386 FILLER_0_5_57
*1387 FILLER_0_5_69
*1388 FILLER_0_5_81
*1389 FILLER_0_5_93
*1390 FILLER_0_6_109
*1391 FILLER_0_6_121
*1392 FILLER_0_6_133
*1393 FILLER_0_6_139
*1394 FILLER_0_6_141
*1395 FILLER_0_6_15
*1396 FILLER_0_6_153
*1397 FILLER_0_6_165
*1398 FILLER_0_6_177
*1399 FILLER_0_6_189
*1400 FILLER_0_6_195
*1401 FILLER_0_6_197
*1402 FILLER_0_6_209
*1403 FILLER_0_6_221
*1404 FILLER_0_6_233
*1405 FILLER_0_6_245
*1406 FILLER_0_6_251
*1407 FILLER_0_6_253
*1408 FILLER_0_6_265
*1409 FILLER_0_6_27
*1410 FILLER_0_6_277
*1411 FILLER_0_6_289
*1412 FILLER_0_6_29
*1413 FILLER_0_6_3
*1414 FILLER_0_6_301
*1415 FILLER_0_6_307
*1416 FILLER_0_6_309
*1417 FILLER_0_6_321
*1418 FILLER_0_6_333
*1419 FILLER_0_6_345
*1420 FILLER_0_6_41
*1421 FILLER_0_6_53
*1422 FILLER_0_6_65
*1423 FILLER_0_6_77
*1424 FILLER_0_6_83
*1425 FILLER_0_6_85
*1426 FILLER_0_6_97
*1427 FILLER_0_7_105
*1428 FILLER_0_7_111
*1429 FILLER_0_7_113
*1430 FILLER_0_7_125
*1431 FILLER_0_7_137
*1432 FILLER_0_7_149
*1433 FILLER_0_7_15
*1434 FILLER_0_7_161
*1435 FILLER_0_7_167
*1436 FILLER_0_7_169
*1437 FILLER_0_7_181
*1438 FILLER_0_7_193
*1439 FILLER_0_7_205
*1440 FILLER_0_7_217
*1441 FILLER_0_7_223
*1442 FILLER_0_7_225
*1443 FILLER_0_7_237
*1444 FILLER_0_7_249
*1445 FILLER_0_7_261
*1446 FILLER_0_7_27
*1447 FILLER_0_7_273
*1448 FILLER_0_7_279
*1449 FILLER_0_7_281
*1450 FILLER_0_7_293
*1451 FILLER_0_7_3
*1452 FILLER_0_7_305
*1453 FILLER_0_7_317
*1454 FILLER_0_7_329
*1455 FILLER_0_7_335
*1456 FILLER_0_7_337
*1457 FILLER_0_7_349
*1458 FILLER_0_7_39
*1459 FILLER_0_7_51
*1460 FILLER_0_7_55
*1461 FILLER_0_7_57
*1462 FILLER_0_7_69
*1463 FILLER_0_7_81
*1464 FILLER_0_7_93
*1465 FILLER_0_8_109
*1466 FILLER_0_8_121
*1467 FILLER_0_8_133
*1468 FILLER_0_8_139
*1469 FILLER_0_8_141