*SPEF "ieee 1481-1999"
*DESIGN "tt_um_wokwi_374815911155542017"
*DATE "11:11:11 Fri 11 11, 1111"
*VENDOR "OpenRCX"
*PROGRAM "Parallel Extraction"
*VERSION "1.0"
*DESIGN_FLOW "NAME_SCOPE LOCAL" "PIN_CAP NONE"
*DIVIDER /
*DELIMITER :
*BUS_DELIMITER []
*T_UNIT 1 NS
*C_UNIT 1 PF
*R_UNIT 1 OHM
*L_UNIT 1 HENRY

*NAME_MAP
*3 clk
*4 ena
*5 rst_n
*6 ui_in[0]
*7 ui_in[1]
*8 ui_in[2]
*9 ui_in[3]
*10 ui_in[4]
*11 ui_in[5]
*12 ui_in[6]
*13 ui_in[7]
*14 uio_in[0]
*15 uio_in[1]
*16 uio_in[2]
*17 uio_in[3]
*18 uio_in[4]
*19 uio_in[5]
*20 uio_in[6]
*21 uio_in[7]
*22 net7
*23 net8
*24 net9
*25 net10
*26 net11
*27 net12
*28 net13
*29 net14
*30 net15
*31 net16
*32 net17
*33 net18
*34 net19
*35 net20
*36 net21
*37 net22
*38 uo_out[0]
*39 uo_out[1]
*40 uo_out[2]
*41 uo_out[3]
*42 uo_out[4]
*43 uo_out[5]
*44 uo_out[6]
*45 uo_out[7]
*46 _00_
*47 _01_
*48 _02_
*49 _03_
*50 _04_
*51 _05_
*52 _06_
*53 _07_
*54 _08_
*55 _09_
*56 nand1\.out
*57 nand3\.out
*58 nand4\.out
*59 nand5\.out
*60 nand6\.out
*61 nand7\.out
*62 nand8\.out
*63 nand9\.out
*64 net1
*65 net2
*66 net3
*67 net4
*68 net5
*69 net6
*70 FILLER_0_0_109
*71 FILLER_0_0_113
*72 FILLER_0_0_125
*73 FILLER_0_0_137
*74 FILLER_0_0_141
*75 FILLER_0_0_15
*76 FILLER_0_0_153
*77 FILLER_0_0_165
*78 FILLER_0_0_169
*79 FILLER_0_0_181
*80 FILLER_0_0_193
*81 FILLER_0_0_197
*82 FILLER_0_0_209
*83 FILLER_0_0_221
*84 FILLER_0_0_225
*85 FILLER_0_0_237
*86 FILLER_0_0_249
*87 FILLER_0_0_253
*88 FILLER_0_0_265
*89 FILLER_0_0_27
*90 FILLER_0_0_277
*91 FILLER_0_0_281
*92 FILLER_0_0_29
*93 FILLER_0_0_293
*94 FILLER_0_0_3
*95 FILLER_0_0_305
*96 FILLER_0_0_309
*97 FILLER_0_0_321
*98 FILLER_0_0_333
*99 FILLER_0_0_337
*100 FILLER_0_0_349
*101 FILLER_0_0_41
*102 FILLER_0_0_53
*103 FILLER_0_0_57
*104 FILLER_0_0_69
*105 FILLER_0_0_81
*106 FILLER_0_0_85
*107 FILLER_0_0_97
*108 FILLER_0_10_109
*109 FILLER_0_10_121
*110 FILLER_0_10_133
*111 FILLER_0_10_139
*112 FILLER_0_10_141
*113 FILLER_0_10_15
*114 FILLER_0_10_153
*115 FILLER_0_10_165
*116 FILLER_0_10_177
*117 FILLER_0_10_189
*118 FILLER_0_10_195
*119 FILLER_0_10_197
*120 FILLER_0_10_209
*121 FILLER_0_10_221
*122 FILLER_0_10_233
*123 FILLER_0_10_245
*124 FILLER_0_10_251
*125 FILLER_0_10_253
*126 FILLER_0_10_265
*127 FILLER_0_10_27
*128 FILLER_0_10_277
*129 FILLER_0_10_289
*130 FILLER_0_10_29
*131 FILLER_0_10_3
*132 FILLER_0_10_301
*133 FILLER_0_10_307
*134 FILLER_0_10_309
*135 FILLER_0_10_321
*136 FILLER_0_10_333
*137 FILLER_0_10_345
*138 FILLER_0_10_41
*139 FILLER_0_10_53
*140 FILLER_0_10_65
*141 FILLER_0_10_77
*142 FILLER_0_10_83
*143 FILLER_0_10_85
*144 FILLER_0_10_97
*145 FILLER_0_11_105
*146 FILLER_0_11_111
*147 FILLER_0_11_113
*148 FILLER_0_11_125
*149 FILLER_0_11_137
*150 FILLER_0_11_149
*151 FILLER_0_11_15
*152 FILLER_0_11_161
*153 FILLER_0_11_167
*154 FILLER_0_11_169
*155 FILLER_0_11_181
*156 FILLER_0_11_193
*157 FILLER_0_11_205
*158 FILLER_0_11_217
*159 FILLER_0_11_223
*160 FILLER_0_11_225
*161 FILLER_0_11_237
*162 FILLER_0_11_249
*163 FILLER_0_11_261
*164 FILLER_0_11_27
*165 FILLER_0_11_273
*166 FILLER_0_11_279
*167 FILLER_0_11_281
*168 FILLER_0_11_293
*169 FILLER_0_11_3
*170 FILLER_0_11_305
*171 FILLER_0_11_317
*172 FILLER_0_11_329
*173 FILLER_0_11_335
*174 FILLER_0_11_337
*175 FILLER_0_11_349
*176 FILLER_0_11_39
*177 FILLER_0_11_51
*178 FILLER_0_11_55
*179 FILLER_0_11_57
*180 FILLER_0_11_69
*181 FILLER_0_11_81
*182 FILLER_0_11_93
*183 FILLER_0_12_109
*184 FILLER_0_12_121
*185 FILLER_0_12_133
*186 FILLER_0_12_139
*187 FILLER_0_12_141
*188 FILLER_0_12_15
*189 FILLER_0_12_153
*190 FILLER_0_12_165
*191 FILLER_0_12_177
*192 FILLER_0_12_189
*193 FILLER_0_12_195
*194 FILLER_0_12_197
*195 FILLER_0_12_209
*196 FILLER_0_12_221
*197 FILLER_0_12_233
*198 FILLER_0_12_245
*199 FILLER_0_12_251
*200 FILLER_0_12_253
*201 FILLER_0_12_265
*202 FILLER_0_12_27
*203 FILLER_0_12_277
*204 FILLER_0_12_289
*205 FILLER_0_12_29
*206 FILLER_0_12_3
*207 FILLER_0_12_301
*208 FILLER_0_12_307
*209 FILLER_0_12_309
*210 FILLER_0_12_321
*211 FILLER_0_12_333
*212 FILLER_0_12_345
*213 FILLER_0_12_41
*214 FILLER_0_12_53
*215 FILLER_0_12_65
*216 FILLER_0_12_77
*217 FILLER_0_12_83
*218 FILLER_0_12_85
*219 FILLER_0_12_97
*220 FILLER_0_13_105
*221 FILLER_0_13_111
*222 FILLER_0_13_113
*223 FILLER_0_13_125
*224 FILLER_0_13_137
*225 FILLER_0_13_149
*226 FILLER_0_13_15
*227 FILLER_0_13_161
*228 FILLER_0_13_167
*229 FILLER_0_13_169
*230 FILLER_0_13_181
*231 FILLER_0_13_193
*232 FILLER_0_13_205
*233 FILLER_0_13_217
*234 FILLER_0_13_223
*235 FILLER_0_13_225
*236 FILLER_0_13_237
*237 FILLER_0_13_249
*238 FILLER_0_13_261
*239 FILLER_0_13_27
*240 FILLER_0_13_273
*241 FILLER_0_13_279
*242 FILLER_0_13_281
*243 FILLER_0_13_293
*244 FILLER_0_13_3
*245 FILLER_0_13_305
*246 FILLER_0_13_317
*247 FILLER_0_13_329
*248 FILLER_0_13_335
*249 FILLER_0_13_337
*250 FILLER_0_13_349
*251 FILLER_0_13_39
*252 FILLER_0_13_51
*253 FILLER_0_13_55
*254 FILLER_0_13_57
*255 FILLER_0_13_69
*256 FILLER_0_13_81
*257 FILLER_0_13_93
*258 FILLER_0_14_109
*259 FILLER_0_14_121
*260 FILLER_0_14_133
*261 FILLER_0_14_139
*262 FILLER_0_14_141
*263 FILLER_0_14_15
*264 FILLER_0_14_153
*265 FILLER_0_14_165
*266 FILLER_0_14_177
*267 FILLER_0_14_189
*268 FILLER_0_14_195
*269 FILLER_0_14_197
*270 FILLER_0_14_209
*271 FILLER_0_14_221
*272 FILLER_0_14_233
*273 FILLER_0_14_245
*274 FILLER_0_14_251
*275 FILLER_0_14_253
*276 FILLER_0_14_265
*277 FILLER_0_14_27
*278 FILLER_0_14_277
*279 FILLER_0_14_289
*280 FILLER_0_14_29
*281 FILLER_0_14_3
*282 FILLER_0_14_301
*283 FILLER_0_14_307
*284 FILLER_0_14_309
*285 FILLER_0_14_321
*286 FILLER_0_14_333
*287 FILLER_0_14_345
*288 FILLER_0_14_41
*289 FILLER_0_14_53
*290 FILLER_0_14_65
*291 FILLER_0_14_77
*292 FILLER_0_14_83
*293 FILLER_0_14_85
*294 FILLER_0_14_97
*295 FILLER_0_15_105
*296 FILLER_0_15_111
*297 FILLER_0_15_113
*298 FILLER_0_15_125
*299 FILLER_0_15_137
*300 FILLER_0_15_149
*301 FILLER_0_15_15
*302 FILLER_0_15_161
*303 FILLER_0_15_167
*304 FILLER_0_15_169
*305 FILLER_0_15_181
*306 FILLER_0_15_193
*307 FILLER_0_15_205
*308 FILLER_0_15_217
*309 FILLER_0_15_223
*310 FILLER_0_15_225
*311 FILLER_0_15_237
*312 FILLER_0_15_249
*313 FILLER_0_15_261
*314 FILLER_0_15_27
*315 FILLER_0_15_273
*316 FILLER_0_15_279
*317 FILLER_0_15_281
*318 FILLER_0_15_293
*319 FILLER_0_15_3
*320 FILLER_0_15_305
*321 FILLER_0_15_317
*322 FILLER_0_15_329
*323 FILLER_0_15_335
*324 FILLER_0_15_337
*325 FILLER_0_15_349
*326 FILLER_0_15_39
*327 FILLER_0_15_51
*328 FILLER_0_15_55
*329 FILLER_0_15_57
*330 FILLER_0_15_69
*331 FILLER_0_15_81
*332 FILLER_0_15_93
*333 FILLER_0_16_109
*334 FILLER_0_16_121
*335 FILLER_0_16_133
*336 FILLER_0_16_139
*337 FILLER_0_16_141
*338 FILLER_0_16_15
*339 FILLER_0_16_153
*340 FILLER_0_16_165
*341 FILLER_0_16_177
*342 FILLER_0_16_189
*343 FILLER_0_16_195
*344 FILLER_0_16_197
*345 FILLER_0_16_209
*346 FILLER_0_16_221
*347 FILLER_0_16_233
*348 FILLER_0_16_245
*349 FILLER_0_16_251
*350 FILLER_0_16_253
*351 FILLER_0_16_265
*352 FILLER_0_16_27
*353 FILLER_0_16_277
*354 FILLER_0_16_289
*355 FILLER_0_16_29
*356 FILLER_0_16_3
*357 FILLER_0_16_301
*358 FILLER_0_16_307
*359 FILLER_0_16_309
*360 FILLER_0_16_321
*361 FILLER_0_16_333
*362 FILLER_0_16_345
*363 FILLER_0_16_41
*364 FILLER_0_16_53
*365 FILLER_0_16_65
*366 FILLER_0_16_77
*367 FILLER_0_16_83
*368 FILLER_0_16_85
*369 FILLER_0_16_97
*370 FILLER_0_17_105
*371 FILLER_0_17_111
*372 FILLER_0_17_113
*373 FILLER_0_17_125
*374 FILLER_0_17_137
*375 FILLER_0_17_149
*376 FILLER_0_17_15
*377 FILLER_0_17_161
*378 FILLER_0_17_167
*379 FILLER_0_17_169
*380 FILLER_0_17_181
*381 FILLER_0_17_193
*382 FILLER_0_17_205
*383 FILLER_0_17_217
*384 FILLER_0_17_223
*385 FILLER_0_17_225
*386 FILLER_0_17_237
*387 FILLER_0_17_249
*388 FILLER_0_17_261
*389 FILLER_0_17_27
*390 FILLER_0_17_273
*391 FILLER_0_17_279
*392 FILLER_0_17_281
*393 FILLER_0_17_293
*394 FILLER_0_17_3
*395 FILLER_0_17_305
*396 FILLER_0_17_317
*397 FILLER_0_17_329
*398 FILLER_0_17_335
*399 FILLER_0_17_337
*400 FILLER_0_17_349
*401 FILLER_0_17_39
*402 FILLER_0_17_51
*403 FILLER_0_17_55
*404 FILLER_0_17_57
*405 FILLER_0_17_69
*406 FILLER_0_17_81
*407 FILLER_0_17_93
*408 FILLER_0_18_109
*409 FILLER_0_18_121
*410 FILLER_0_18_133
*411 FILLER_0_18_139
*412 FILLER_0_18_141
*413 FILLER_0_18_15
*414 FILLER_0_18_153
*415 FILLER_0_18_165
*416 FILLER_0_18_177
*417 FILLER_0_18_189
*418 FILLER_0_18_195
*419 FILLER_0_18_197
*420 FILLER_0_18_209
*421 FILLER_0_18_221
*422 FILLER_0_18_233
*423 FILLER_0_18_245
*424 FILLER_0_18_251
*425 FILLER_0_18_253
*426 FILLER_0_18_265
*427 FILLER_0_18_27
*428 FILLER_0_18_277
*429 FILLER_0_18_289
*430 FILLER_0_18_29
*431 FILLER_0_18_3
*432 FILLER_0_18_301
*433 FILLER_0_18_307
*434 FILLER_0_18_309
*435 FILLER_0_18_321
*436 FILLER_0_18_333
*437 FILLER_0_18_345
*438 FILLER_0_18_41
*439 FILLER_0_18_53
*440 FILLER_0_18_65
*441 FILLER_0_18_77
*442 FILLER_0_18_83
*443 FILLER_0_18_85
*444 FILLER_0_18_97
*445 FILLER_0_19_105
*446 FILLER_0_19_111
*447 FILLER_0_19_113
*448 FILLER_0_19_125
*449 FILLER_0_19_137
*450 FILLER_0_19_149
*451 FILLER_0_19_15
*452 FILLER_0_19_161
*453 FILLER_0_19_167
*454 FILLER_0_19_169
*455 FILLER_0_19_181
*456 FILLER_0_19_193
*457 FILLER_0_19_205
*458 FILLER_0_19_217
*459 FILLER_0_19_223
*460 FILLER_0_19_225
*461 FILLER_0_19_237
*462 FILLER_0_19_249
*463 FILLER_0_19_261
*464 FILLER_0_19_27
*465 FILLER_0_19_273
*466 FILLER_0_19_279
*467 FILLER_0_19_281
*468 FILLER_0_19_293
*469 FILLER_0_19_3
*470 FILLER_0_19_305
*471 FILLER_0_19_317
*472 FILLER_0_19_329
*473 FILLER_0_19_335
*474 FILLER_0_19_337
*475 FILLER_0_19_349
*476 FILLER_0_19_39
*477 FILLER_0_19_51
*478 FILLER_0_19_55
*479 FILLER_0_19_57
*480 FILLER_0_19_69
*481 FILLER_0_19_81
*482 FILLER_0_19_93
*483 FILLER_0_1_105
*484 FILLER_0_1_111
*485 FILLER_0_1_113
*486 FILLER_0_1_125
*487 FILLER_0_1_137
*488 FILLER_0_1_149
*489 FILLER_0_1_15
*490 FILLER_0_1_161
*491 FILLER_0_1_167
*492 FILLER_0_1_169
*493 FILLER_0_1_181
*494 FILLER_0_1_193
*495 FILLER_0_1_205
*496 FILLER_0_1_217
*497 FILLER_0_1_223
*498 FILLER_0_1_225
*499 FILLER_0_1_237
*500 FILLER_0_1_249
*501 FILLER_0_1_261
*502 FILLER_0_1_27
*503 FILLER_0_1_273
*504 FILLER_0_1_279
*505 FILLER_0_1_281
*506 FILLER_0_1_293
*507 FILLER_0_1_3
*508 FILLER_0_1_305
*509 FILLER_0_1_317
*510 FILLER_0_1_329
*511 FILLER_0_1_335
*512 FILLER_0_1_337
*513 FILLER_0_1_349
*514 FILLER_0_1_39
*515 FILLER_0_1_51
*516 FILLER_0_1_55
*517 FILLER_0_1_57
*518 FILLER_0_1_69
*519 FILLER_0_1_81
*520 FILLER_0_1_93
*521 FILLER_0_20_109
*522 FILLER_0_20_121
*523 FILLER_0_20_133
*524 FILLER_0_20_139
*525 FILLER_0_20_141
*526 FILLER_0_20_15
*527 FILLER_0_20_153
*528 FILLER_0_20_165
*529 FILLER_0_20_177
*530 FILLER_0_20_189
*531 FILLER_0_20_195
*532 FILLER_0_20_197
*533 FILLER_0_20_209
*534 FILLER_0_20_221
*535 FILLER_0_20_233
*536 FILLER_0_20_245
*537 FILLER_0_20_251
*538 FILLER_0_20_253
*539 FILLER_0_20_265
*540 FILLER_0_20_27
*541 FILLER_0_20_277
*542 FILLER_0_20_289
*543 FILLER_0_20_29
*544 FILLER_0_20_3
*545 FILLER_0_20_301
*546 FILLER_0_20_307
*547 FILLER_0_20_309
*548 FILLER_0_20_321
*549 FILLER_0_20_333
*550 FILLER_0_20_345
*551 FILLER_0_20_41
*552 FILLER_0_20_53
*553 FILLER_0_20_65
*554 FILLER_0_20_77
*555 FILLER_0_20_83
*556 FILLER_0_20_85
*557 FILLER_0_20_97
*558 FILLER_0_21_105
*559 FILLER_0_21_111
*560 FILLER_0_21_113
*561 FILLER_0_21_125
*562 FILLER_0_21_137
*563 FILLER_0_21_149
*564 FILLER_0_21_15
*565 FILLER_0_21_161
*566 FILLER_0_21_167
*567 FILLER_0_21_169
*568 FILLER_0_21_181
*569 FILLER_0_21_193
*570 FILLER_0_21_205
*571 FILLER_0_21_217
*572 FILLER_0_21_223
*573 FILLER_0_21_225
*574 FILLER_0_21_237
*575 FILLER_0_21_249
*576 FILLER_0_21_261
*577 FILLER_0_21_27
*578 FILLER_0_21_273
*579 FILLER_0_21_279
*580 FILLER_0_21_281
*581 FILLER_0_21_293
*582 FILLER_0_21_3
*583 FILLER_0_21_305
*584 FILLER_0_21_317
*585 FILLER_0_21_329
*586 FILLER_0_21_335
*587 FILLER_0_21_337
*588 FILLER_0_21_349
*589 FILLER_0_21_39
*590 FILLER_0_21_51
*591 FILLER_0_21_55
*592 FILLER_0_21_57
*593 FILLER_0_21_69
*594 FILLER_0_21_81
*595 FILLER_0_21_93
*596 FILLER_0_22_109
*597 FILLER_0_22_121
*598 FILLER_0_22_133
*599 FILLER_0_22_139
*600 FILLER_0_22_141
*601 FILLER_0_22_15
*602 FILLER_0_22_153
*603 FILLER_0_22_165
*604 FILLER_0_22_177
*605 FILLER_0_22_189
*606 FILLER_0_22_195
*607 FILLER_0_22_197
*608 FILLER_0_22_209
*609 FILLER_0_22_221
*610 FILLER_0_22_233
*611 FILLER_0_22_245
*612 FILLER_0_22_251
*613 FILLER_0_22_253
*614 FILLER_0_22_265
*615 FILLER_0_22_27
*616 FILLER_0_22_277
*617 FILLER_0_22_289
*618 FILLER_0_22_29
*619 FILLER_0_22_3
*620 FILLER_0_22_301
*621 FILLER_0_22_307
*622 FILLER_0_22_309
*623 FILLER_0_22_321
*624 FILLER_0_22_333
*625 FILLER_0_22_345
*626 FILLER_0_22_41
*627 FILLER_0_22_53
*628 FILLER_0_22_65
*629 FILLER_0_22_77
*630 FILLER_0_22_83
*631 FILLER_0_22_85
*632 FILLER_0_22_97
*633 FILLER_0_23_105
*634 FILLER_0_23_111
*635 FILLER_0_23_113
*636 FILLER_0_23_125
*637 FILLER_0_23_137
*638 FILLER_0_23_149
*639 FILLER_0_23_15
*640 FILLER_0_23_161
*641 FILLER_0_23_167
*642 FILLER_0_23_169
*643 FILLER_0_23_181
*644 FILLER_0_23_193
*645 FILLER_0_23_205
*646 FILLER_0_23_217
*647 FILLER_0_23_223
*648 FILLER_0_23_225
*649 FILLER_0_23_237
*650 FILLER_0_23_249
*651 FILLER_0_23_261
*652 FILLER_0_23_27
*653 FILLER_0_23_273
*654 FILLER_0_23_279
*655 FILLER_0_23_281
*656 FILLER_0_23_293
*657 FILLER_0_23_3
*658 FILLER_0_23_305
*659 FILLER_0_23_317
*660 FILLER_0_23_329
*661 FILLER_0_23_335
*662 FILLER_0_23_337
*663 FILLER_0_23_349
*664 FILLER_0_23_39
*665 FILLER_0_23_51
*666 FILLER_0_23_55
*667 FILLER_0_23_57
*668 FILLER_0_23_69
*669 FILLER_0_23_81
*670 FILLER_0_23_93
*671 FILLER_0_24_109
*672 FILLER_0_24_121
*673 FILLER_0_24_133
*674 FILLER_0_24_139
*675 FILLER_0_24_141
*676 FILLER_0_24_15
*677 FILLER_0_24_153
*678 FILLER_0_24_165
*679 FILLER_0_24_177
*680 FILLER_0_24_189
*681 FILLER_0_24_195
*682 FILLER_0_24_197
*683 FILLER_0_24_209
*684 FILLER_0_24_221
*685 FILLER_0_24_233
*686 FILLER_0_24_245
*687 FILLER_0_24_251
*688 FILLER_0_24_253
*689 FILLER_0_24_265
*690 FILLER_0_24_27
*691 FILLER_0_24_277
*692 FILLER_0_24_289
*693 FILLER_0_24_29
*694 FILLER_0_24_3
*695 FILLER_0_24_301
*696 FILLER_0_24_307
*697 FILLER_0_24_309
*698 FILLER_0_24_321
*699 FILLER_0_24_333
*700 FILLER_0_24_345
*701 FILLER_0_24_41
*702 FILLER_0_24_53
*703 FILLER_0_24_65
*704 FILLER_0_24_77
*705 FILLER_0_24_83
*706 FILLER_0_24_85
*707 FILLER_0_24_97
*708 FILLER_0_25_105
*709 FILLER_0_25_111
*710 FILLER_0_25_113
*711 FILLER_0_25_125
*712 FILLER_0_25_137
*713 FILLER_0_25_149
*714 FILLER_0_25_15
*715 FILLER_0_25_161
*716 FILLER_0_25_167
*717 FILLER_0_25_169
*718 FILLER_0_25_181
*719 FILLER_0_25_193
*720 FILLER_0_25_205
*721 FILLER_0_25_217
*722 FILLER_0_25_223
*723 FILLER_0_25_225
*724 FILLER_0_25_237
*725 FILLER_0_25_249
*726 FILLER_0_25_261
*727 FILLER_0_25_27
*728 FILLER_0_25_273
*729 FILLER_0_25_279
*730 FILLER_0_25_281
*731 FILLER_0_25_293
*732 FILLER_0_25_3
*733 FILLER_0_25_305
*734 FILLER_0_25_317
*735 FILLER_0_25_329
*736 FILLER_0_25_335
*737 FILLER_0_25_337
*738 FILLER_0_25_349
*739 FILLER_0_25_39
*740 FILLER_0_25_51
*741 FILLER_0_25_55
*742 FILLER_0_25_57
*743 FILLER_0_25_69
*744 FILLER_0_25_81
*745 FILLER_0_25_93
*746 FILLER_0_26_109
*747 FILLER_0_26_121
*748 FILLER_0_26_133
*749 FILLER_0_26_139
*750 FILLER_0_26_141
*751 FILLER_0_26_15
*752 FILLER_0_26_153
*753 FILLER_0_26_165
*754 FILLER_0_26_177
*755 FILLER_0_26_189
*756 FILLER_0_26_195
*757 FILLER_0_26_197
*758 FILLER_0_26_209
*759 FILLER_0_26_221
*760 FILLER_0_26_233
*761 FILLER_0_26_245
*762 FILLER_0_26_251
*763 FILLER_0_26_253
*764 FILLER_0_26_265
*765 FILLER_0_26_27
*766 FILLER_0_26_277
*767 FILLER_0_26_289
*768 FILLER_0_26_29
*769 FILLER_0_26_3
*770 FILLER_0_26_301
*771 FILLER_0_26_307
*772 FILLER_0_26_309
*773 FILLER_0_26_321
*774 FILLER_0_26_333
*775 FILLER_0_26_345
*776 FILLER_0_26_41
*777 FILLER_0_26_53
*778 FILLER_0_26_65
*779 FILLER_0_26_77
*780 FILLER_0_26_83
*781 FILLER_0_26_85
*782 FILLER_0_26_97
*783 FILLER_0_27_105
*784 FILLER_0_27_111
*785 FILLER_0_27_113
*786 FILLER_0_27_125
*787 FILLER_0_27_137
*788 FILLER_0_27_149
*789 FILLER_0_27_15
*790 FILLER_0_27_161
*791 FILLER_0_27_167
*792 FILLER_0_27_169
*793 FILLER_0_27_181
*794 FILLER_0_27_193
*795 FILLER_0_27_205
*796 FILLER_0_27_217
*797 FILLER_0_27_223
*798 FILLER_0_27_225
*799 FILLER_0_27_237
*800 FILLER_0_27_249
*801 FILLER_0_27_261
*802 FILLER_0_27_27
*803 FILLER_0_27_273
*804 FILLER_0_27_279
*805 FILLER_0_27_281
*806 FILLER_0_27_293
*807 FILLER_0_27_3
*808 FILLER_0_27_305
*809 FILLER_0_27_317
*810 FILLER_0_27_329
*811 FILLER_0_27_335
*812 FILLER_0_27_337
*813 FILLER_0_27_349
*814 FILLER_0_27_39
*815 FILLER_0_27_51
*816 FILLER_0_27_55
*817 FILLER_0_27_57
*818 FILLER_0_27_69
*819 FILLER_0_27_81
*820 FILLER_0_27_93
*821 FILLER_0_28_109
*822 FILLER_0_28_121
*823 FILLER_0_28_133
*824 FILLER_0_28_139
*825 FILLER_0_28_141
*826 FILLER_0_28_15
*827 FILLER_0_28_153
*828 FILLER_0_28_165
*829 FILLER_0_28_177
*830 FILLER_0_28_189
*831 FILLER_0_28_195
*832 FILLER_0_28_197
*833 FILLER_0_28_209
*834 FILLER_0_28_221
*835 FILLER_0_28_233
*836 FILLER_0_28_245
*837 FILLER_0_28_251
*838 FILLER_0_28_253
*839 FILLER_0_28_265
*840 FILLER_0_28_27
*841 FILLER_0_28_277
*842 FILLER_0_28_289
*843 FILLER_0_28_29
*844 FILLER_0_28_3
*845 FILLER_0_28_301
*846 FILLER_0_28_307
*847 FILLER_0_28_309
*848 FILLER_0_28_321
*849 FILLER_0_28_333
*850 FILLER_0_28_345
*851 FILLER_0_28_41
*852 FILLER_0_28_53
*853 FILLER_0_28_65
*854 FILLER_0_28_77
*855 FILLER_0_28_83
*856 FILLER_0_28_85
*857 FILLER_0_28_97
*858 FILLER_0_29_105
*859 FILLER_0_29_111
*860 FILLER_0_29_113
*861 FILLER_0_29_125
*862 FILLER_0_29_137
*863 FILLER_0_29_149
*864 FILLER_0_29_15
*865 FILLER_0_29_161
*866 FILLER_0_29_167
*867 FILLER_0_29_169
*868 FILLER_0_29_181
*869 FILLER_0_29_193
*870 FILLER_0_29_205
*871 FILLER_0_29_217
*872 FILLER_0_29_223
*873 FILLER_0_29_225
*874 FILLER_0_29_237
*875 FILLER_0_29_249
*876 FILLER_0_29_261
*877 FILLER_0_29_27
*878 FILLER_0_29_273
*879 FILLER_0_29_279
*880 FILLER_0_29_281
*881 FILLER_0_29_293
*882 FILLER_0_29_3
*883 FILLER_0_29_305
*884 FILLER_0_29_317
*885 FILLER_0_29_329
*886 FILLER_0_29_335
*887 FILLER_0_29_337
*888 FILLER_0_29_349
*889 FILLER_0_29_39
*890 FILLER_0_29_51
*891 FILLER_0_29_55
*892 FILLER_0_29_57
*893 FILLER_0_29_69
*894 FILLER_0_29_81
*895 FILLER_0_29_93
*896 FILLER_0_2_109
*897 FILLER_0_2_121
*898 FILLER_0_2_133
*899 FILLER_0_2_139
*900 FILLER_0_2_141
*901 FILLER_0_2_15
*902 FILLER_0_2_153
*903 FILLER_0_2_165
*904 FILLER_0_2_177
*905 FILLER_0_2_189
*906 FILLER_0_2_195
*907 FILLER_0_2_197
*908 FILLER_0_2_209
*909 FILLER_0_2_221
*910 FILLER_0_2_233
*911 FILLER_0_2_245
*912 FILLER_0_2_251
*913 FILLER_0_2_253
*914 FILLER_0_2_265
*915 FILLER_0_2_27
*916 FILLER_0_2_277
*917 FILLER_0_2_289
*918 FILLER_0_2_29
*919 FILLER_0_2_3
*920 FILLER_0_2_301
*921 FILLER_0_2_307
*922 FILLER_0_2_309
*923 FILLER_0_2_321
*924 FILLER_0_2_333
*925 FILLER_0_2_345
*926 FILLER_0_2_41
*927 FILLER_0_2_53
*928 FILLER_0_2_65
*929 FILLER_0_2_77
*930 FILLER_0_2_83
*931 FILLER_0_2_85
*932 FILLER_0_2_97
*933 FILLER_0_30_109
*934 FILLER_0_30_121
*935 FILLER_0_30_133
*936 FILLER_0_30_139
*937 FILLER_0_30_141
*938 FILLER_0_30_15
*939 FILLER_0_30_153
*940 FILLER_0_30_165
*941 FILLER_0_30_177
*942 FILLER_0_30_189
*943 FILLER_0_30_195
*944 FILLER_0_30_197
*945 FILLER_0_30_209
*946 FILLER_0_30_221
*947 FILLER_0_30_233
*948 FILLER_0_30_245
*949 FILLER_0_30_251
*950 FILLER_0_30_253
*951 FILLER_0_30_265
*952 FILLER_0_30_27
*953 FILLER_0_30_277
*954 FILLER_0_30_289
*955 FILLER_0_30_29
*956 FILLER_0_30_3
*957 FILLER_0_30_301
*958 FILLER_0_30_307
*959 FILLER_0_30_309
*960 FILLER_0_30_321
*961 FILLER_0_30_333
*962 FILLER_0_30_345
*963 FILLER_0_30_41
*964 FILLER_0_30_53
*965 FILLER_0_30_65
*966 FILLER_0_30_77
*967 FILLER_0_30_83
*968 FILLER_0_30_85
*969 FILLER_0_30_97
*970 FILLER_0_31_105
*971 FILLER_0_31_111
*972 FILLER_0_31_113
*973 FILLER_0_31_125
*974 FILLER_0_31_137
*975 FILLER_0_31_149
*976 FILLER_0_31_15
*977 FILLER_0_31_161
*978 FILLER_0_31_167
*979 FILLER_0_31_169
*980 FILLER_0_31_181
*981 FILLER_0_31_193
*982 FILLER_0_31_205
*983 FILLER_0_31_217
*984 FILLER_0_31_223
*985 FILLER_0_31_225
*986 FILLER_0_31_237
*987 FILLER_0_31_249
*988 FILLER_0_31_261
*989 FILLER_0_31_27
*990 FILLER_0_31_273
*991 FILLER_0_31_279
*992 FILLER_0_31_281
*993 FILLER_0_31_293
*994 FILLER_0_31_3
*995 FILLER_0_31_305
*996 FILLER_0_31_317
*997 FILLER_0_31_329
*998 FILLER_0_31_335
*999 FILLER_0_31_337
*1000 FILLER_0_31_349
*1001 FILLER_0_31_39
*1002 FILLER_0_31_51
*1003 FILLER_0_31_55
*1004 FILLER_0_31_57
*1005 FILLER_0_31_69
*1006 FILLER_0_31_81
*1007 FILLER_0_31_93
*1008 FILLER_0_32_109
*1009 FILLER_0_32_121
*1010 FILLER_0_32_133
*1011 FILLER_0_32_139
*1012 FILLER_0_32_141
*1013 FILLER_0_32_15
*1014 FILLER_0_32_153
*1015 FILLER_0_32_165
*1016 FILLER_0_32_177
*1017 FILLER_0_32_189
*1018 FILLER_0_32_195
*1019 FILLER_0_32_197
*1020 FILLER_0_32_209
*1021 FILLER_0_32_221
*1022 FILLER_0_32_233
*1023 FILLER_0_32_245
*1024 FILLER_0_32_251
*1025 FILLER_0_32_253
*1026 FILLER_0_32_265
*1027 FILLER_0_32_27
*1028 FILLER_0_32_277
*1029 FILLER_0_32_289
*1030 FILLER_0_32_29
*1031 FILLER_0_32_3
*1032 FILLER_0_32_301
*1033 FILLER_0_32_307
*1034 FILLER_0_32_309
*1035 FILLER_0_32_321
*1036 FILLER_0_32_333
*1037 FILLER_0_32_345
*1038 FILLER_0_32_41
*1039 FILLER_0_32_53
*1040 FILLER_0_32_65
*1041 FILLER_0_32_77
*1042 FILLER_0_32_83
*1043 FILLER_0_32_85
*1044 FILLER_0_32_97
*1045 FILLER_0_33_105
*1046 FILLER_0_33_111
*1047 FILLER_0_33_113
*1048 FILLER_0_33_125
*1049 FILLER_0_33_137
*1050 FILLER_0_33_149
*1051 FILLER_0_33_15
*1052 FILLER_0_33_161
*1053 FILLER_0_33_167
*1054 FILLER_0_33_169
*1055 FILLER_0_33_181
*1056 FILLER_0_33_193
*1057 FILLER_0_33_205
*1058 FILLER_0_33_217
*1059 FILLER_0_33_223
*1060 FILLER_0_33_225
*1061 FILLER_0_33_237
*1062 FILLER_0_33_249
*1063 FILLER_0_33_261
*1064 FILLER_0_33_27
*1065 FILLER_0_33_273
*1066 FILLER_0_33_279
*1067 FILLER_0_33_281
*1068 FILLER_0_33_293
*1069 FILLER_0_33_3
*1070 FILLER_0_33_305
*1071 FILLER_0_33_317
*1072 FILLER_0_33_329
*1073 FILLER_0_33_335
*1074 FILLER_0_33_337
*1075 FILLER_0_33_349
*1076 FILLER_0_33_39
*1077 FILLER_0_33_51
*1078 FILLER_0_33_55
*1079 FILLER_0_33_57
*1080 FILLER_0_33_69
*1081 FILLER_0_33_81
*1082 FILLER_0_33_93
*1083 FILLER_0_34_109
*1084 FILLER_0_34_121
*1085 FILLER_0_34_133
*1086 FILLER_0_34_139
*1087 FILLER_0_34_141
*1088 FILLER_0_34_15
*1089 FILLER_0_34_153
*1090 FILLER_0_34_165
*1091 FILLER_0_34_177
*1092 FILLER_0_34_189
*1093 FILLER_0_34_195
*1094 FILLER_0_34_197
*1095 FILLER_0_34_209
*1096 FILLER_0_34_221
*1097 FILLER_0_34_233
*1098 FILLER_0_34_245
*1099 FILLER_0_34_251
*1100 FILLER_0_34_253
*1101 FILLER_0_34_265
*1102 FILLER_0_34_27
*1103 FILLER_0_34_277
*1104 FILLER_0_34_289
*1105 FILLER_0_34_29
*1106 FILLER_0_34_3
*1107 FILLER_0_34_301
*1108 FILLER_0_34_307
*1109 FILLER_0_34_309
*1110 FILLER_0_34_321
*1111 FILLER_0_34_333
*1112 FILLER_0_34_345
*1113 FILLER_0_34_41
*1114 FILLER_0_34_53
*1115 FILLER_0_34_65
*1116 FILLER_0_34_77
*1117 FILLER_0_34_83
*1118 FILLER_0_34_85
*1119 FILLER_0_34_97
*1120 FILLER_0_35_105
*1121 FILLER_0_35_111
*1122 FILLER_0_35_113
*1123 FILLER_0_35_125
*1124 FILLER_0_35_137
*1125 FILLER_0_35_149
*1126 FILLER_0_35_15
*1127 FILLER_0_35_161
*1128 FILLER_0_35_167
*1129 FILLER_0_35_169
*1130 FILLER_0_35_181
*1131 FILLER_0_35_193
*1132 FILLER_0_35_205
*1133 FILLER_0_35_217
*1134 FILLER_0_35_223
*1135 FILLER_0_35_225
*1136 FILLER_0_35_237
*1137 FILLER_0_35_249
*1138 FILLER_0_35_261
*1139 FILLER_0_35_27
*1140 FILLER_0_35_273
*1141 FILLER_0_35_279
*1142 FILLER_0_35_281
*1143 FILLER_0_35_293
*1144 FILLER_0_35_3
*1145 FILLER_0_35_305
*1146 FILLER_0_35_317
*1147 FILLER_0_35_329
*1148 FILLER_0_35_335
*1149 FILLER_0_35_337
*1150 FILLER_0_35_349
*1151 FILLER_0_35_39
*1152 FILLER_0_35_51
*1153 FILLER_0_35_55
*1154 FILLER_0_35_57
*1155 FILLER_0_35_69
*1156 FILLER_0_35_81
*1157 FILLER_0_35_93
*1158 FILLER_0_36_109
*1159 FILLER_0_36_121
*1160 FILLER_0_36_133
*1161 FILLER_0_36_139
*1162 FILLER_0_36_141
*1163 FILLER_0_36_149
*1164 FILLER_0_36_15
*1165 FILLER_0_36_159
*1166 FILLER_0_36_165
*1167 FILLER_0_36_172
*1168 FILLER_0_36_178
*1169 FILLER_0_36_190
*1170 FILLER_0_36_197
*1171 FILLER_0_36_209
*1172 FILLER_0_36_221
*1173 FILLER_0_36_233
*1174 FILLER_0_36_245
*1175 FILLER_0_36_251
*1176 FILLER_0_36_253
*1177 FILLER_0_36_265
*1178 FILLER_0_36_27
*1179 FILLER_0_36_277
*1180 FILLER_0_36_289
*1181 FILLER_0_36_29
*1182 FILLER_0_36_3
*1183 FILLER_0_36_301
*1184 FILLER_0_36_307
*1185 FILLER_0_36_309
*1186 FILLER_0_36_321
*1187 FILLER_0_36_333
*1188 FILLER_0_36_345
*1189 FILLER_0_36_41
*1190 FILLER_0_36_53
*1191 FILLER_0_36_65
*1192 FILLER_0_36_77
*1193 FILLER_0_36_83
*1194 FILLER_0_36_85
*1195 FILLER_0_36_97
*1196 FILLER_0_37_105
*1197 FILLER_0_37_111
*1198 FILLER_0_37_113
*1199 FILLER_0_37_125
*1200 FILLER_0_37_133
*1201 FILLER_0_37_139
*1202 FILLER_0_37_15
*1203 FILLER_0_37_166
*1204 FILLER_0_37_174
*1205 FILLER_0_37_203
*1206 FILLER_0_37_213
*1207 FILLER_0_37_221
*1208 FILLER_0_37_225
*1209 FILLER_0_37_237
*1210 FILLER_0_37_249
*1211 FILLER_0_37_261
*1212 FILLER_0_37_27
*1213 FILLER_0_37_273
*1214 FILLER_0_37_279
*1215 FILLER_0_37_281
*1216 FILLER_0_37_293
*1217 FILLER_0_37_3
*1218 FILLER_0_37_305
*1219 FILLER_0_37_310
*1220 FILLER_0_37_322
*1221 FILLER_0_37_334
*1222 FILLER_0_37_337
*1223 FILLER_0_37_349
*1224 FILLER_0_37_39
*1225 FILLER_0_37_51
*1226 FILLER_0_37_55
*1227 FILLER_0_37_57
*1228 FILLER_0_37_69
*1229 FILLER_0_37_81
*1230 FILLER_0_37_93
*1231 FILLER_0_38_102
*1232 FILLER_0_38_106
*1233 FILLER_0_38_110
*1234 FILLER_0_38_113
*1235 FILLER_0_38_118
*1236 FILLER_0_38_122
*1237 FILLER_0_38_126
*1238 FILLER_0_38_130
*1239 FILLER_0_38_134
*1240 FILLER_0_38_14
*1241 FILLER_0_38_141
*1242 FILLER_0_38_148
*1243 FILLER_0_38_152
*1244 FILLER_0_38_157
*1245 FILLER_0_38_165
*1246 FILLER_0_38_169
*1247 FILLER_0_38_18
*1248 FILLER_0_38_182
*1249 FILLER_0_38_188
*1250 FILLER_0_38_195
*1251 FILLER_0_38_197
*1252 FILLER_0_38_205
*1253 FILLER_0_38_217
*1254 FILLER_0_38_22
*1255 FILLER_0_38_223
*1256 FILLER_0_38_225
*1257 FILLER_0_38_237
*1258 FILLER_0_38_249
*1259 FILLER_0_38_253
*1260 FILLER_0_38_265
*1261 FILLER_0_38_277
*1262 FILLER_0_38_281
*1263 FILLER_0_38_287
*1264 FILLER_0_38_295
*1265 FILLER_0_38_3
*1266 FILLER_0_38_302
*1267 FILLER_0_38_32
*1268 FILLER_0_38_320
*1269 FILLER_0_38_326
*1270 FILLER_0_38_334
*1271 FILLER_0_38_337
*1272 FILLER_0_38_349
*1273 FILLER_0_38_38
*1274 FILLER_0_38_42
*1275 FILLER_0_38_46
*1276 FILLER_0_38_50
*1277 FILLER_0_38_54
*1278 FILLER_0_38_57
*1279 FILLER_0_38_62
*1280 FILLER_0_38_66
*1281 FILLER_0_38_70
*1282 FILLER_0_38_74
*1283 FILLER_0_38_78
*1284 FILLER_0_38_88
*1285 FILLER_0_38_94
*1286 FILLER_0_38_98
*1287 FILLER_0_3_105
*1288 FILLER_0_3_111
*1289 FILLER_0_3_113
*1290 FILLER_0_3_125
*1291 FILLER_0_3_137
*1292 FILLER_0_3_149
*1293 FILLER_0_3_15
*1294 FILLER_0_3_161
*1295 FILLER_0_3_167
*1296 FILLER_0_3_169
*1297 FILLER_0_3_181
*1298 FILLER_0_3_193
*1299 FILLER_0_3_205
*1300 FILLER_0_3_217
*1301 FILLER_0_3_223
*1302 FILLER_0_3_225
*1303 FILLER_0_3_237
*1304 FILLER_0_3_249
*1305 FILLER_0_3_261
*1306 FILLER_0_3_27
*1307 FILLER_0_3_273
*1308 FILLER_0_3_279
*1309 FILLER_0_3_281
*1310 FILLER_0_3_293
*1311 FILLER_0_3_3
*1312 FILLER_0_3_305
*1313 FILLER_0_3_317
*1314 FILLER_0_3_329
*1315 FILLER_0_3_335
*1316 FILLER_0_3_337
*1317 FILLER_0_3_349
*1318 FILLER_0_3_39
*1319 FILLER_0_3_51
*1320 FILLER_0_3_55
*1321 FILLER_0_3_57
*1322 FILLER_0_3_69
*1323 FILLER_0_3_81
*1324 FILLER_0_3_93
*1325 FILLER_0_4_109
*1326 FILLER_0_4_121
*1327 FILLER_0_4_133
*1328 FILLER_0_4_139
*1329 FILLER_0_4_141
*1330 FILLER_0_4_15
*1331 FILLER_0_4_153
*1332 FILLER_0_4_165
*1333 FILLER_0_4_177
*1334 FILLER_0_4_189
*1335 FILLER_0_4_195
*1336 FILLER_0_4_197
*1337 FILLER_0_4_209
*1338 FILLER_0_4_221
*1339 FILLER_0_4_233
*1340 FILLER_0_4_245
*1341 FILLER_0_4_251
*1342 FILLER_0_4_253
*1343 FILLER_0_4_265
*1344 FILLER_0_4_27
*1345 FILLER_0_4_277
*1346 FILLER_0_4_289
*1347 FILLER_0_4_29
*1348 FILLER_0_4_3
*1349 FILLER_0_4_301
*1350 FILLER_0_4_307
*1351 FILLER_0_4_309
*1352 FILLER_0_4_321
*1353 FILLER_0_4_333
*1354 FILLER_0_4_345
*1355 FILLER_0_4_41
*1356 FILLER_0_4_53
*1357 FILLER_0_4_65
*1358 FILLER_0_4_77
*1359 FILLER_0_4_83
*1360 FILLER_0_4_85
*1361 FILLER_0_4_97
*1362 FILLER_0_5_105
*1363 FILLER_0_5_111
*1364 FILLER_0_5_113
*1365 FILLER_0_5_125
*1366 FILLER_0_5_137
*1367 FILLER_0_5_149
*1368 FILLER_0_5_15
*1369 FILLER_0_5_161
*1370 FILLER_0_5_167
*1371 FILLER_0_5_169
*1372 FILLER_0_5_181
*1373 FILLER_0_5_193
*1374 FILLER_0_5_205
*1375 FILLER_0_5_217
*1376 FILLER_0_5_223
*1377 FILLER_0_5_225
*1378 FILLER_0_5_237
*1379 FILLER_0_5_249
*1380 FILLER_0_5_261
*1381 FILLER_0_5_27
*1382 FILLER_0_5_273
*1383 FILLER_0_5_279
*1384 FILLER_0_5_281
*1385 FILLER_0_5_293
*1386 FILLER_0_5_3
*1387 FILLER_0_5_305
*1388 FILLER_0_5_317
*1389 FILLER_0_5_329
*1390 FILLER_0_5_335
*1391 FILLER_0_5_337
*1392 FILLER_0_5_349
*1393 FILLER_0_5_39
*1394 FILLER_0_5_51
*1395 FILLER_0_5_55
*1396 FILLER_0_5_57
*1397 FILLER_0_5_69
*1398 FILLER_0_5_81
*1399 FILLER_0_5_93
*1400 FILLER_0_6_109
*1401 FILLER_0_6_121
*1402 FILLER_0_6_133
*1403 FILLER_0_6_139
*1404 FILLER_0_6_141
*1405 FILLER_0_6_15
*1406 FILLER_0_6_153
*1407 FILLER_0_6_165
*1408 FILLER_0_6_177
*1409 FILLER_0_6_189
*1410 FILLER_0_6_195
*1411 FILLER_0_6_197
*1412 FILLER_0_6_209
*1413 FILLER_0_6_221
*1414 FILLER_0_6_233
*1415 FILLER_0_6_245
*1416 FILLER_0_6_251
*1417 FILLER_0_6_253
*1418 FILLER_0_6_265
*1419 FILLER_0_6_27
*1420 FILLER_0_6_277
*1421 FILLER_0_6_289
*1422 FILLER_0_6_29
*1423 FILLER_0_6_3
*1424 FILLER_0_6_301
*1425 FILLER_0_6_307
*1426 FILLER_0_6_309
*1427 FILLER_0_6_321
*1428 FILLER_0_6_333
*1429 FILLER_0_6_345
*1430 FILLER_0_6_41
*1431 FILLER_0_6_53
*1432 FILLER_0_6_65
*1433 FILLER_0_6_77
*1434 FILLER_0_6_83
*1435 FILLER_0_6_85
*1436 FILLER_0_6_97
*1437 FILLER_0_7_105
*1438 FILLER_0_7_111
*1439 FILLER_0_7_113
*1440 FILLER_0_7_125
*1441 FILLER_0_7_137
*1442 FILLER_0_7_149
*1443 FILLER_0_7_15
*1444 FILLER_0_7_161
*1445 FILLER_0_7_167
*1446 FILLER_0_7_169
*1447 FILLER_0_7_181
*1448 FILLER_0_7_193
*1449 FILLER_0_7_205
*1450 FILLER_0_7_217
*1451 FILLER_0_7_223
*1452 FILLER_0_7_225
*1453 FILLER_0_7_237
*1454 FILLER_0_7_249
*1455 FILLER_0_7_261
*1456 FILLER_0_7_27
*1457 FILLER_0_7_273
*1458 FILLER_0_7_279
*1459 FILLER_0_7_281