*SPEF "ieee 1481-1999"
*DESIGN "tt_um_ternaryPC_radixconvert"
*DATE "11:11:11 Fri 11 11, 1111"
*VENDOR "OpenRCX"
*PROGRAM "Parallel Extraction"
*VERSION "1.0"
*DESIGN_FLOW "NAME_SCOPE LOCAL" "PIN_CAP NONE"
*DIVIDER /
*DELIMITER :
*BUS_DELIMITER []
*T_UNIT 1 NS
*C_UNIT 1 PF
*R_UNIT 1 OHM
*L_UNIT 1 HENRY

*NAME_MAP
*3 clk
*4 ena
*5 rst_n
*6 ui_in[0]
*7 ui_in[1]
*8 ui_in[2]
*9 ui_in[3]
*10 ui_in[4]
*11 ui_in[5]
*12 ui_in[6]
*13 ui_in[7]
*14 uio_in[0]
*15 uio_in[1]
*16 uio_in[2]
*17 uio_in[3]
*18 uio_in[4]
*19 uio_in[5]
*20 uio_in[6]
*21 uio_in[7]
*22 net16
*23 net17
*24 net18
*25 net19
*26 net20
*27 net21
*28 net12
*29 net13
*30 uio_out[0]
*31 uio_out[1]
*32 uio_out[2]
*33 uio_out[3]
*34 uio_out[4]
*35 uio_out[5]
*36 net14
*37 net15
*38 uo_out[0]
*39 uo_out[1]
*40 uo_out[2]
*41 uo_out[3]
*42 uo_out[4]
*43 uo_out[5]
*44 uo_out[6]
*45 uo_out[7]
*46 SavedGate_0\.SavedGate_0\.SavedGate_0\.SavedGate_1\.LogicGate_0\.out\[0\]
*47 SavedGate_0\.SavedGate_0\.SavedGate_0\.SavedGate_1\.LogicGate_0\.out\[1\]
*48 SavedGate_0\.SavedGate_2\.SavedGate_0\.SavedGate_1\.LogicGate_0\.out\[0\]
*49 SavedGate_0\.SavedGate_2\.SavedGate_0\.SavedGate_1\.LogicGate_0\.out\[1\]
*50 SavedGate_0\.SavedGate_4\.SavedGate_0\.SavedGate_1\.LogicGate_0\.out\[0\]
*51 SavedGate_0\.SavedGate_4\.SavedGate_0\.SavedGate_1\.LogicGate_0\.out\[1\]
*52 SavedGate_0\.SavedGate_6\.SavedGate_0\.SavedGate_1\.LogicGate_0\.out\[0\]
*53 SavedGate_0\.SavedGate_6\.SavedGate_0\.SavedGate_1\.LogicGate_0\.out\[1\]
*54 _000_
*55 _001_
*56 _002_
*57 _003_
*58 _004_
*59 _005_
*60 _006_
*61 _007_
*62 _016_
*63 _017_
*64 _018_
*65 _019_
*66 _020_
*67 _021_
*68 _022_
*69 _023_
*70 _024_
*71 _025_
*72 _026_
*73 _027_
*74 _028_
*75 _029_
*76 _030_
*77 _031_
*78 _032_
*79 _033_
*80 _034_
*81 _035_
*82 _036_
*83 _037_
*84 _038_
*85 _039_
*86 _040_
*87 _041_
*88 _042_
*89 _043_
*90 _044_
*91 _045_
*92 _046_
*93 _047_
*94 _048_
*95 _049_
*96 _050_
*97 _051_
*98 _052_
*99 _053_
*100 _054_
*101 _055_
*102 _056_
*103 _057_
*104 _058_
*105 _059_
*106 _060_
*107 _061_
*108 _062_
*109 _063_
*110 _064_
*111 _065_
*112 _066_
*113 _067_
*114 _068_
*115 _069_
*116 _070_
*117 _071_
*118 _072_
*119 _073_
*120 _074_
*121 _075_
*122 _076_
*123 _077_
*124 _078_
*125 _079_
*126 _080_
*127 _081_
*128 _082_
*129 _083_
*130 _084_
*131 _085_
*132 _086_
*133 _087_
*134 _088_
*135 _089_
*136 _090_
*137 _091_
*138 _092_
*139 _093_
*140 _094_
*141 _095_
*142 _096_
*143 _097_
*144 _098_
*145 _099_
*146 _100_
*147 _101_
*148 _102_
*149 _103_
*150 _104_
*151 _105_
*152 _106_
*153 _107_
*154 _108_
*155 _109_
*156 _110_
*157 _111_
*158 _112_
*159 _113_
*160 _114_
*161 clknet_0_clk
*162 clknet_1_0__leaf_clk
*163 clknet_1_1__leaf_clk
*164 net1
*165 net10
*166 net11
*167 net2
*168 net22
*169 net23
*170 net24
*171 net25
*172 net26
*173 net27
*174 net28
*175 net29
*176 net3
*177 net4
*178 net5
*179 net6
*180 net7
*181 net8
*182 net9
*183 FILLER_0_0_109
*184 FILLER_0_0_113
*185 FILLER_0_0_125
*186 FILLER_0_0_137
*187 FILLER_0_0_141
*188 FILLER_0_0_15
*189 FILLER_0_0_153
*190 FILLER_0_0_165
*191 FILLER_0_0_169
*192 FILLER_0_0_181
*193 FILLER_0_0_193
*194 FILLER_0_0_197
*195 FILLER_0_0_209
*196 FILLER_0_0_221
*197 FILLER_0_0_225
*198 FILLER_0_0_237
*199 FILLER_0_0_249
*200 FILLER_0_0_253
*201 FILLER_0_0_265
*202 FILLER_0_0_27
*203 FILLER_0_0_277
*204 FILLER_0_0_281
*205 FILLER_0_0_29
*206 FILLER_0_0_293
*207 FILLER_0_0_3
*208 FILLER_0_0_305
*209 FILLER_0_0_309
*210 FILLER_0_0_321
*211 FILLER_0_0_333
*212 FILLER_0_0_337
*213 FILLER_0_0_349
*214 FILLER_0_0_41
*215 FILLER_0_0_53
*216 FILLER_0_0_57
*217 FILLER_0_0_69
*218 FILLER_0_0_81
*219 FILLER_0_0_85
*220 FILLER_0_0_97
*221 FILLER_0_10_109
*222 FILLER_0_10_121
*223 FILLER_0_10_133
*224 FILLER_0_10_139
*225 FILLER_0_10_141
*226 FILLER_0_10_15
*227 FILLER_0_10_153
*228 FILLER_0_10_165
*229 FILLER_0_10_177
*230 FILLER_0_10_189
*231 FILLER_0_10_195
*232 FILLER_0_10_197
*233 FILLER_0_10_209
*234 FILLER_0_10_221
*235 FILLER_0_10_233
*236 FILLER_0_10_245
*237 FILLER_0_10_251
*238 FILLER_0_10_253
*239 FILLER_0_10_265
*240 FILLER_0_10_27
*241 FILLER_0_10_277
*242 FILLER_0_10_289
*243 FILLER_0_10_29
*244 FILLER_0_10_3
*245 FILLER_0_10_301
*246 FILLER_0_10_307
*247 FILLER_0_10_309
*248 FILLER_0_10_321
*249 FILLER_0_10_333
*250 FILLER_0_10_345
*251 FILLER_0_10_41
*252 FILLER_0_10_53
*253 FILLER_0_10_65
*254 FILLER_0_10_77
*255 FILLER_0_10_83
*256 FILLER_0_10_85
*257 FILLER_0_10_97
*258 FILLER_0_11_105
*259 FILLER_0_11_111
*260 FILLER_0_11_113
*261 FILLER_0_11_125
*262 FILLER_0_11_137
*263 FILLER_0_11_149
*264 FILLER_0_11_15
*265 FILLER_0_11_161
*266 FILLER_0_11_167
*267 FILLER_0_11_169
*268 FILLER_0_11_181
*269 FILLER_0_11_193
*270 FILLER_0_11_205
*271 FILLER_0_11_217
*272 FILLER_0_11_223
*273 FILLER_0_11_225
*274 FILLER_0_11_237
*275 FILLER_0_11_249
*276 FILLER_0_11_261
*277 FILLER_0_11_27
*278 FILLER_0_11_273
*279 FILLER_0_11_279
*280 FILLER_0_11_281
*281 FILLER_0_11_293
*282 FILLER_0_11_3
*283 FILLER_0_11_305
*284 FILLER_0_11_317
*285 FILLER_0_11_329
*286 FILLER_0_11_335
*287 FILLER_0_11_337
*288 FILLER_0_11_349
*289 FILLER_0_11_39
*290 FILLER_0_11_51
*291 FILLER_0_11_55
*292 FILLER_0_11_57
*293 FILLER_0_11_69
*294 FILLER_0_11_81
*295 FILLER_0_11_93
*296 FILLER_0_12_109
*297 FILLER_0_12_121
*298 FILLER_0_12_133
*299 FILLER_0_12_139
*300 FILLER_0_12_141
*301 FILLER_0_12_15
*302 FILLER_0_12_153
*303 FILLER_0_12_165
*304 FILLER_0_12_177
*305 FILLER_0_12_189
*306 FILLER_0_12_195
*307 FILLER_0_12_197
*308 FILLER_0_12_209
*309 FILLER_0_12_221
*310 FILLER_0_12_233
*311 FILLER_0_12_245
*312 FILLER_0_12_251
*313 FILLER_0_12_253
*314 FILLER_0_12_265
*315 FILLER_0_12_27
*316 FILLER_0_12_277
*317 FILLER_0_12_289
*318 FILLER_0_12_29
*319 FILLER_0_12_3
*320 FILLER_0_12_301
*321 FILLER_0_12_307
*322 FILLER_0_12_309
*323 FILLER_0_12_321
*324 FILLER_0_12_333
*325 FILLER_0_12_345
*326 FILLER_0_12_41
*327 FILLER_0_12_53
*328 FILLER_0_12_65
*329 FILLER_0_12_77
*330 FILLER_0_12_83
*331 FILLER_0_12_85
*332 FILLER_0_12_97
*333 FILLER_0_13_105
*334 FILLER_0_13_111
*335 FILLER_0_13_113
*336 FILLER_0_13_125
*337 FILLER_0_13_137
*338 FILLER_0_13_149
*339 FILLER_0_13_15
*340 FILLER_0_13_161
*341 FILLER_0_13_167
*342 FILLER_0_13_169
*343 FILLER_0_13_181
*344 FILLER_0_13_193
*345 FILLER_0_13_205
*346 FILLER_0_13_217
*347 FILLER_0_13_223
*348 FILLER_0_13_225
*349 FILLER_0_13_237
*350 FILLER_0_13_249
*351 FILLER_0_13_261
*352 FILLER_0_13_27
*353 FILLER_0_13_273
*354 FILLER_0_13_279
*355 FILLER_0_13_281
*356 FILLER_0_13_293
*357 FILLER_0_13_3
*358 FILLER_0_13_305
*359 FILLER_0_13_317
*360 FILLER_0_13_329
*361 FILLER_0_13_335
*362 FILLER_0_13_337
*363 FILLER_0_13_349
*364 FILLER_0_13_39
*365 FILLER_0_13_51
*366 FILLER_0_13_55
*367 FILLER_0_13_57
*368 FILLER_0_13_69
*369 FILLER_0_13_81
*370 FILLER_0_13_93
*371 FILLER_0_14_109
*372 FILLER_0_14_121
*373 FILLER_0_14_133
*374 FILLER_0_14_139
*375 FILLER_0_14_141
*376 FILLER_0_14_15
*377 FILLER_0_14_153
*378 FILLER_0_14_165
*379 FILLER_0_14_177
*380 FILLER_0_14_189
*381 FILLER_0_14_195
*382 FILLER_0_14_197
*383 FILLER_0_14_209
*384 FILLER_0_14_221
*385 FILLER_0_14_233
*386 FILLER_0_14_245
*387 FILLER_0_14_251
*388 FILLER_0_14_253
*389 FILLER_0_14_265
*390 FILLER_0_14_27
*391 FILLER_0_14_277
*392 FILLER_0_14_289
*393 FILLER_0_14_29
*394 FILLER_0_14_3
*395 FILLER_0_14_301
*396 FILLER_0_14_307
*397 FILLER_0_14_309
*398 FILLER_0_14_321
*399 FILLER_0_14_333
*400 FILLER_0_14_345
*401 FILLER_0_14_41
*402 FILLER_0_14_53
*403 FILLER_0_14_65
*404 FILLER_0_14_77
*405 FILLER_0_14_83
*406 FILLER_0_14_85
*407 FILLER_0_14_97
*408 FILLER_0_15_105
*409 FILLER_0_15_111
*410 FILLER_0_15_113
*411 FILLER_0_15_125
*412 FILLER_0_15_137
*413 FILLER_0_15_149
*414 FILLER_0_15_15
*415 FILLER_0_15_161
*416 FILLER_0_15_167
*417 FILLER_0_15_169
*418 FILLER_0_15_181
*419 FILLER_0_15_193
*420 FILLER_0_15_205
*421 FILLER_0_15_217
*422 FILLER_0_15_223
*423 FILLER_0_15_225
*424 FILLER_0_15_237
*425 FILLER_0_15_249
*426 FILLER_0_15_261
*427 FILLER_0_15_27
*428 FILLER_0_15_273
*429 FILLER_0_15_279
*430 FILLER_0_15_281
*431 FILLER_0_15_293
*432 FILLER_0_15_3
*433 FILLER_0_15_305
*434 FILLER_0_15_317
*435 FILLER_0_15_329
*436 FILLER_0_15_335
*437 FILLER_0_15_337
*438 FILLER_0_15_349
*439 FILLER_0_15_39
*440 FILLER_0_15_51
*441 FILLER_0_15_55
*442 FILLER_0_15_57
*443 FILLER_0_15_69
*444 FILLER_0_15_81
*445 FILLER_0_15_93
*446 FILLER_0_16_109
*447 FILLER_0_16_121
*448 FILLER_0_16_133
*449 FILLER_0_16_139
*450 FILLER_0_16_141
*451 FILLER_0_16_15
*452 FILLER_0_16_153
*453 FILLER_0_16_165
*454 FILLER_0_16_177
*455 FILLER_0_16_189
*456 FILLER_0_16_195
*457 FILLER_0_16_197
*458 FILLER_0_16_209
*459 FILLER_0_16_221
*460 FILLER_0_16_233
*461 FILLER_0_16_245
*462 FILLER_0_16_251
*463 FILLER_0_16_253
*464 FILLER_0_16_265
*465 FILLER_0_16_27
*466 FILLER_0_16_277
*467 FILLER_0_16_289
*468 FILLER_0_16_29
*469 FILLER_0_16_3
*470 FILLER_0_16_301
*471 FILLER_0_16_307
*472 FILLER_0_16_309
*473 FILLER_0_16_321
*474 FILLER_0_16_333
*475 FILLER_0_16_345
*476 FILLER_0_16_41
*477 FILLER_0_16_53
*478 FILLER_0_16_65
*479 FILLER_0_16_77
*480 FILLER_0_16_83
*481 FILLER_0_16_85
*482 FILLER_0_16_97
*483 FILLER_0_17_105
*484 FILLER_0_17_111
*485 FILLER_0_17_113
*486 FILLER_0_17_125
*487 FILLER_0_17_137
*488 FILLER_0_17_149
*489 FILLER_0_17_15
*490 FILLER_0_17_161
*491 FILLER_0_17_167
*492 FILLER_0_17_169
*493 FILLER_0_17_181
*494 FILLER_0_17_193
*495 FILLER_0_17_205
*496 FILLER_0_17_217
*497 FILLER_0_17_223
*498 FILLER_0_17_225
*499 FILLER_0_17_237
*500 FILLER_0_17_249
*501 FILLER_0_17_261
*502 FILLER_0_17_27
*503 FILLER_0_17_273
*504 FILLER_0_17_279
*505 FILLER_0_17_281
*506 FILLER_0_17_293
*507 FILLER_0_17_3
*508 FILLER_0_17_305
*509 FILLER_0_17_317
*510 FILLER_0_17_329
*511 FILLER_0_17_335
*512 FILLER_0_17_337
*513 FILLER_0_17_349
*514 FILLER_0_17_39
*515 FILLER_0_17_51
*516 FILLER_0_17_55
*517 FILLER_0_17_57
*518 FILLER_0_17_69
*519 FILLER_0_17_81
*520 FILLER_0_17_93
*521 FILLER_0_18_109
*522 FILLER_0_18_121
*523 FILLER_0_18_133
*524 FILLER_0_18_139
*525 FILLER_0_18_141
*526 FILLER_0_18_15
*527 FILLER_0_18_153
*528 FILLER_0_18_165
*529 FILLER_0_18_177
*530 FILLER_0_18_189
*531 FILLER_0_18_195
*532 FILLER_0_18_197
*533 FILLER_0_18_209
*534 FILLER_0_18_221
*535 FILLER_0_18_233
*536 FILLER_0_18_245
*537 FILLER_0_18_251
*538 FILLER_0_18_253
*539 FILLER_0_18_265
*540 FILLER_0_18_27
*541 FILLER_0_18_277
*542 FILLER_0_18_289
*543 FILLER_0_18_29
*544 FILLER_0_18_3
*545 FILLER_0_18_301
*546 FILLER_0_18_307
*547 FILLER_0_18_309
*548 FILLER_0_18_321
*549 FILLER_0_18_333
*550 FILLER_0_18_345
*551 FILLER_0_18_41
*552 FILLER_0_18_53
*553 FILLER_0_18_65
*554 FILLER_0_18_77
*555 FILLER_0_18_83
*556 FILLER_0_18_85
*557 FILLER_0_18_97
*558 FILLER_0_19_105
*559 FILLER_0_19_111
*560 FILLER_0_19_113
*561 FILLER_0_19_125
*562 FILLER_0_19_137
*563 FILLER_0_19_149
*564 FILLER_0_19_15
*565 FILLER_0_19_161
*566 FILLER_0_19_167
*567 FILLER_0_19_169
*568 FILLER_0_19_181
*569 FILLER_0_19_193
*570 FILLER_0_19_205
*571 FILLER_0_19_217
*572 FILLER_0_19_223
*573 FILLER_0_19_225
*574 FILLER_0_19_237
*575 FILLER_0_19_249
*576 FILLER_0_19_261
*577 FILLER_0_19_27
*578 FILLER_0_19_273
*579 FILLER_0_19_279
*580 FILLER_0_19_281
*581 FILLER_0_19_293
*582 FILLER_0_19_3
*583 FILLER_0_19_305
*584 FILLER_0_19_317
*585 FILLER_0_19_329
*586 FILLER_0_19_335
*587 FILLER_0_19_337
*588 FILLER_0_19_349
*589 FILLER_0_19_39
*590 FILLER_0_19_51
*591 FILLER_0_19_55
*592 FILLER_0_19_57
*593 FILLER_0_19_69
*594 FILLER_0_19_81
*595 FILLER_0_19_93
*596 FILLER_0_1_105
*597 FILLER_0_1_111
*598 FILLER_0_1_113
*599 FILLER_0_1_125
*600 FILLER_0_1_137
*601 FILLER_0_1_149
*602 FILLER_0_1_15
*603 FILLER_0_1_161
*604 FILLER_0_1_167
*605 FILLER_0_1_169
*606 FILLER_0_1_181
*607 FILLER_0_1_193
*608 FILLER_0_1_205
*609 FILLER_0_1_217
*610 FILLER_0_1_223
*611 FILLER_0_1_225
*612 FILLER_0_1_237
*613 FILLER_0_1_249
*614 FILLER_0_1_261
*615 FILLER_0_1_27
*616 FILLER_0_1_273
*617 FILLER_0_1_279
*618 FILLER_0_1_281
*619 FILLER_0_1_293
*620 FILLER_0_1_3
*621 FILLER_0_1_305
*622 FILLER_0_1_317
*623 FILLER_0_1_329
*624 FILLER_0_1_335
*625 FILLER_0_1_337
*626 FILLER_0_1_349
*627 FILLER_0_1_39
*628 FILLER_0_1_51
*629 FILLER_0_1_55
*630 FILLER_0_1_57
*631 FILLER_0_1_69
*632 FILLER_0_1_81
*633 FILLER_0_1_93
*634 FILLER_0_20_109
*635 FILLER_0_20_121
*636 FILLER_0_20_133
*637 FILLER_0_20_139
*638 FILLER_0_20_141
*639 FILLER_0_20_15
*640 FILLER_0_20_153
*641 FILLER_0_20_165
*642 FILLER_0_20_177
*643 FILLER_0_20_189
*644 FILLER_0_20_195
*645 FILLER_0_20_197
*646 FILLER_0_20_209
*647 FILLER_0_20_221
*648 FILLER_0_20_233
*649 FILLER_0_20_245
*650 FILLER_0_20_251
*651 FILLER_0_20_253
*652 FILLER_0_20_265
*653 FILLER_0_20_27
*654 FILLER_0_20_277
*655 FILLER_0_20_289
*656 FILLER_0_20_29
*657 FILLER_0_20_3
*658 FILLER_0_20_301
*659 FILLER_0_20_307
*660 FILLER_0_20_309
*661 FILLER_0_20_321
*662 FILLER_0_20_333
*663 FILLER_0_20_345
*664 FILLER_0_20_41
*665 FILLER_0_20_53
*666 FILLER_0_20_65
*667 FILLER_0_20_77
*668 FILLER_0_20_83
*669 FILLER_0_20_85
*670 FILLER_0_20_97
*671 FILLER_0_21_105
*672 FILLER_0_21_111
*673 FILLER_0_21_113
*674 FILLER_0_21_125
*675 FILLER_0_21_137
*676 FILLER_0_21_149
*677 FILLER_0_21_15
*678 FILLER_0_21_161
*679 FILLER_0_21_167
*680 FILLER_0_21_169
*681 FILLER_0_21_181
*682 FILLER_0_21_193
*683 FILLER_0_21_205
*684 FILLER_0_21_217
*685 FILLER_0_21_223
*686 FILLER_0_21_225
*687 FILLER_0_21_237
*688 FILLER_0_21_249
*689 FILLER_0_21_261
*690 FILLER_0_21_27
*691 FILLER_0_21_273
*692 FILLER_0_21_279
*693 FILLER_0_21_281
*694 FILLER_0_21_293
*695 FILLER_0_21_3
*696 FILLER_0_21_305
*697 FILLER_0_21_317
*698 FILLER_0_21_329
*699 FILLER_0_21_335
*700 FILLER_0_21_337
*701 FILLER_0_21_349
*702 FILLER_0_21_39
*703 FILLER_0_21_51
*704 FILLER_0_21_55
*705 FILLER_0_21_57
*706 FILLER_0_21_69
*707 FILLER_0_21_81
*708 FILLER_0_21_93
*709 FILLER_0_22_109
*710 FILLER_0_22_121
*711 FILLER_0_22_133
*712 FILLER_0_22_139
*713 FILLER_0_22_141
*714 FILLER_0_22_15
*715 FILLER_0_22_153
*716 FILLER_0_22_165
*717 FILLER_0_22_177
*718 FILLER_0_22_189
*719 FILLER_0_22_195
*720 FILLER_0_22_197
*721 FILLER_0_22_209
*722 FILLER_0_22_221
*723 FILLER_0_22_233
*724 FILLER_0_22_245
*725 FILLER_0_22_251
*726 FILLER_0_22_253
*727 FILLER_0_22_265
*728 FILLER_0_22_27
*729 FILLER_0_22_277
*730 FILLER_0_22_289
*731 FILLER_0_22_29
*732 FILLER_0_22_3
*733 FILLER_0_22_301
*734 FILLER_0_22_307
*735 FILLER_0_22_309
*736 FILLER_0_22_321
*737 FILLER_0_22_333
*738 FILLER_0_22_345
*739 FILLER_0_22_41
*740 FILLER_0_22_53
*741 FILLER_0_22_65
*742 FILLER_0_22_77
*743 FILLER_0_22_83
*744 FILLER_0_22_85
*745 FILLER_0_22_97
*746 FILLER_0_23_105
*747 FILLER_0_23_111
*748 FILLER_0_23_113
*749 FILLER_0_23_125
*750 FILLER_0_23_137
*751 FILLER_0_23_149
*752 FILLER_0_23_15
*753 FILLER_0_23_161
*754 FILLER_0_23_167
*755 FILLER_0_23_169
*756 FILLER_0_23_181
*757 FILLER_0_23_193
*758 FILLER_0_23_205
*759 FILLER_0_23_217
*760 FILLER_0_23_223
*761 FILLER_0_23_225
*762 FILLER_0_23_237
*763 FILLER_0_23_249
*764 FILLER_0_23_261
*765 FILLER_0_23_27
*766 FILLER_0_23_273
*767 FILLER_0_23_279
*768 FILLER_0_23_281
*769 FILLER_0_23_293
*770 FILLER_0_23_3
*771 FILLER_0_23_305
*772 FILLER_0_23_317
*773 FILLER_0_23_329
*774 FILLER_0_23_335
*775 FILLER_0_23_337
*776 FILLER_0_23_349
*777 FILLER_0_23_39
*778 FILLER_0_23_51
*779 FILLER_0_23_55
*780 FILLER_0_23_57
*781 FILLER_0_23_69
*782 FILLER_0_23_81
*783 FILLER_0_23_93
*784 FILLER_0_24_109
*785 FILLER_0_24_121
*786 FILLER_0_24_133
*787 FILLER_0_24_139
*788 FILLER_0_24_141
*789 FILLER_0_24_15
*790 FILLER_0_24_153
*791 FILLER_0_24_165
*792 FILLER_0_24_177
*793 FILLER_0_24_189
*794 FILLER_0_24_195
*795 FILLER_0_24_197
*796 FILLER_0_24_209
*797 FILLER_0_24_221
*798 FILLER_0_24_233
*799 FILLER_0_24_245
*800 FILLER_0_24_251
*801 FILLER_0_24_253
*802 FILLER_0_24_265
*803 FILLER_0_24_27
*804 FILLER_0_24_277
*805 FILLER_0_24_289
*806 FILLER_0_24_29
*807 FILLER_0_24_3
*808 FILLER_0_24_301
*809 FILLER_0_24_307
*810 FILLER_0_24_309
*811 FILLER_0_24_321
*812 FILLER_0_24_333
*813 FILLER_0_24_345
*814 FILLER_0_24_41
*815 FILLER_0_24_53
*816 FILLER_0_24_65
*817 FILLER_0_24_77
*818 FILLER_0_24_83
*819 FILLER_0_24_85
*820 FILLER_0_24_97
*821 FILLER_0_25_105
*822 FILLER_0_25_111
*823 FILLER_0_25_113
*824 FILLER_0_25_125
*825 FILLER_0_25_137
*826 FILLER_0_25_149
*827 FILLER_0_25_15
*828 FILLER_0_25_161
*829 FILLER_0_25_167
*830 FILLER_0_25_169
*831 FILLER_0_25_181
*832 FILLER_0_25_193
*833 FILLER_0_25_205
*834 FILLER_0_25_217
*835 FILLER_0_25_223
*836 FILLER_0_25_225
*837 FILLER_0_25_237
*838 FILLER_0_25_249
*839 FILLER_0_25_261
*840 FILLER_0_25_27
*841 FILLER_0_25_273
*842 FILLER_0_25_279
*843 FILLER_0_25_281
*844 FILLER_0_25_293
*845 FILLER_0_25_3
*846 FILLER_0_25_305
*847 FILLER_0_25_317
*848 FILLER_0_25_329
*849 FILLER_0_25_335
*850 FILLER_0_25_337
*851 FILLER_0_25_349
*852 FILLER_0_25_39
*853 FILLER_0_25_51
*854 FILLER_0_25_55
*855 FILLER_0_25_57
*856 FILLER_0_25_69
*857 FILLER_0_25_81
*858 FILLER_0_25_93
*859 FILLER_0_26_109
*860 FILLER_0_26_121
*861 FILLER_0_26_133
*862 FILLER_0_26_139
*863 FILLER_0_26_141
*864 FILLER_0_26_15
*865 FILLER_0_26_153
*866 FILLER_0_26_165
*867 FILLER_0_26_177
*868 FILLER_0_26_189
*869 FILLER_0_26_195
*870 FILLER_0_26_197
*871 FILLER_0_26_209
*872 FILLER_0_26_221
*873 FILLER_0_26_233
*874 FILLER_0_26_245
*875 FILLER_0_26_251
*876 FILLER_0_26_253
*877 FILLER_0_26_265
*878 FILLER_0_26_27
*879 FILLER_0_26_277
*880 FILLER_0_26_289
*881 FILLER_0_26_29
*882 FILLER_0_26_3
*883 FILLER_0_26_301
*884 FILLER_0_26_307
*885 FILLER_0_26_309
*886 FILLER_0_26_321
*887 FILLER_0_26_333
*888 FILLER_0_26_345
*889 FILLER_0_26_41
*890 FILLER_0_26_53
*891 FILLER_0_26_65
*892 FILLER_0_26_77
*893 FILLER_0_26_83
*894 FILLER_0_26_85
*895 FILLER_0_26_97
*896 FILLER_0_27_105
*897 FILLER_0_27_111
*898 FILLER_0_27_113
*899 FILLER_0_27_125
*900 FILLER_0_27_137
*901 FILLER_0_27_149
*902 FILLER_0_27_15
*903 FILLER_0_27_161
*904 FILLER_0_27_167
*905 FILLER_0_27_169
*906 FILLER_0_27_181
*907 FILLER_0_27_193
*908 FILLER_0_27_205
*909 FILLER_0_27_217
*910 FILLER_0_27_223
*911 FILLER_0_27_225
*912 FILLER_0_27_237
*913 FILLER_0_27_249
*914 FILLER_0_27_261
*915 FILLER_0_27_27
*916 FILLER_0_27_273
*917 FILLER_0_27_279
*918 FILLER_0_27_281
*919 FILLER_0_27_293
*920 FILLER_0_27_3
*921 FILLER_0_27_305
*922 FILLER_0_27_317
*923 FILLER_0_27_329
*924 FILLER_0_27_335
*925 FILLER_0_27_337
*926 FILLER_0_27_349
*927 FILLER_0_27_39
*928 FILLER_0_27_51
*929 FILLER_0_27_55
*930 FILLER_0_27_57
*931 FILLER_0_27_69
*932 FILLER_0_27_81
*933 FILLER_0_27_93
*934 FILLER_0_28_109
*935 FILLER_0_28_121
*936 FILLER_0_28_133
*937 FILLER_0_28_139
*938 FILLER_0_28_141
*939 FILLER_0_28_15
*940 FILLER_0_28_153
*941 FILLER_0_28_165
*942 FILLER_0_28_177
*943 FILLER_0_28_189
*944 FILLER_0_28_195
*945 FILLER_0_28_197
*946 FILLER_0_28_209
*947 FILLER_0_28_221
*948 FILLER_0_28_233
*949 FILLER_0_28_245
*950 FILLER_0_28_251
*951 FILLER_0_28_253
*952 FILLER_0_28_265
*953 FILLER_0_28_27
*954 FILLER_0_28_277
*955 FILLER_0_28_289
*956 FILLER_0_28_29
*957 FILLER_0_28_3
*958 FILLER_0_28_301
*959 FILLER_0_28_307
*960 FILLER_0_28_309
*961 FILLER_0_28_321
*962 FILLER_0_28_333
*963 FILLER_0_28_345
*964 FILLER_0_28_41
*965 FILLER_0_28_53
*966 FILLER_0_28_65
*967 FILLER_0_28_77
*968 FILLER_0_28_83
*969 FILLER_0_28_85
*970 FILLER_0_28_97
*971 FILLER_0_29_105
*972 FILLER_0_29_111
*973 FILLER_0_29_113
*974 FILLER_0_29_125
*975 FILLER_0_29_137
*976 FILLER_0_29_149
*977 FILLER_0_29_15
*978 FILLER_0_29_161
*979 FILLER_0_29_167
*980 FILLER_0_29_169
*981 FILLER_0_29_181
*982 FILLER_0_29_193
*983 FILLER_0_29_205
*984 FILLER_0_29_217
*985 FILLER_0_29_223
*986 FILLER_0_29_225
*987 FILLER_0_29_237
*988 FILLER_0_29_249
*989 FILLER_0_29_261
*990 FILLER_0_29_27
*991 FILLER_0_29_273
*992 FILLER_0_29_279
*993 FILLER_0_29_281
*994 FILLER_0_29_293
*995 FILLER_0_29_3
*996 FILLER_0_29_305
*997 FILLER_0_29_317
*998 FILLER_0_29_329
*999 FILLER_0_29_335
*1000 FILLER_0_29_337
*1001 FILLER_0_29_349
*1002 FILLER_0_29_39
*1003 FILLER_0_29_51
*1004 FILLER_0_29_55
*1005 FILLER_0_29_57
*1006 FILLER_0_29_69
*1007 FILLER_0_29_81
*1008 FILLER_0_29_93
*1009 FILLER_0_2_109
*1010 FILLER_0_2_121
*1011 FILLER_0_2_133
*1012 FILLER_0_2_139
*1013 FILLER_0_2_141
*1014 FILLER_0_2_15
*1015 FILLER_0_2_153
*1016 FILLER_0_2_165
*1017 FILLER_0_2_177
*1018 FILLER_0_2_189
*1019 FILLER_0_2_195
*1020 FILLER_0_2_197
*1021 FILLER_0_2_209
*1022 FILLER_0_2_221
*1023 FILLER_0_2_233
*1024 FILLER_0_2_245
*1025 FILLER_0_2_251
*1026 FILLER_0_2_253
*1027 FILLER_0_2_265
*1028 FILLER_0_2_27
*1029 FILLER_0_2_277
*1030 FILLER_0_2_289
*1031 FILLER_0_2_29
*1032 FILLER_0_2_3
*1033 FILLER_0_2_301
*1034 FILLER_0_2_307
*1035 FILLER_0_2_309
*1036 FILLER_0_2_321
*1037 FILLER_0_2_333
*1038 FILLER_0_2_345
*1039 FILLER_0_2_41
*1040 FILLER_0_2_53
*1041 FILLER_0_2_65
*1042 FILLER_0_2_77
*1043 FILLER_0_2_83
*1044 FILLER_0_2_85
*1045 FILLER_0_2_97
*1046 FILLER_0_30_109
*1047 FILLER_0_30_121
*1048 FILLER_0_30_133
*1049 FILLER_0_30_139
*1050 FILLER_0_30_141
*1051 FILLER_0_30_15
*1052 FILLER_0_30_153
*1053 FILLER_0_30_165
*1054 FILLER_0_30_177
*1055 FILLER_0_30_189
*1056 FILLER_0_30_195
*1057 FILLER_0_30_197
*1058 FILLER_0_30_205
*1059 FILLER_0_30_211
*1060 FILLER_0_30_223
*1061 FILLER_0_30_235
*1062 FILLER_0_30_247
*1063 FILLER_0_30_251
*1064 FILLER_0_30_253
*1065 FILLER_0_30_265
*1066 FILLER_0_30_27
*1067 FILLER_0_30_288
*1068 FILLER_0_30_29
*1069 FILLER_0_30_3
*1070 FILLER_0_30_300
*1071 FILLER_0_30_309
*1072 FILLER_0_30_321
*1073 FILLER_0_30_333
*1074 FILLER_0_30_345
*1075 FILLER_0_30_41
*1076 FILLER_0_30_53
*1077 FILLER_0_30_65
*1078 FILLER_0_30_77
*1079 FILLER_0_30_83
*1080 FILLER_0_30_85
*1081 FILLER_0_30_97
*1082 FILLER_0_31_105
*1083 FILLER_0_31_111
*1084 FILLER_0_31_113
*1085 FILLER_0_31_125
*1086 FILLER_0_31_137
*1087 FILLER_0_31_149
*1088 FILLER_0_31_15
*1089 FILLER_0_31_161
*1090 FILLER_0_31_167
*1091 FILLER_0_31_169
*1092 FILLER_0_31_181
*1093 FILLER_0_31_27
*1094 FILLER_0_31_276
*1095 FILLER_0_31_281
*1096 FILLER_0_31_285
*1097 FILLER_0_31_289
*1098 FILLER_0_31_3
*1099 FILLER_0_31_312
*1100 FILLER_0_31_324
*1101 FILLER_0_31_337
*1102 FILLER_0_31_349
*1103 FILLER_0_31_39
*1104 FILLER_0_31_51
*1105 FILLER_0_31_55
*1106 FILLER_0_31_57
*1107 FILLER_0_31_69
*1108 FILLER_0_31_81
*1109 FILLER_0_31_93
*1110 FILLER_0_32_109
*1111 FILLER_0_32_121
*1112 FILLER_0_32_133
*1113 FILLER_0_32_15
*1114 FILLER_0_32_189
*1115 FILLER_0_32_193
*1116 FILLER_0_32_217
*1117 FILLER_0_32_226
*1118 FILLER_0_32_238
*1119 FILLER_0_32_244
*1120 FILLER_0_32_248
*1121 FILLER_0_32_27
*1122 FILLER_0_32_29
*1123 FILLER_0_32_298
*1124 FILLER_0_32_3
*1125 FILLER_0_32_306
*1126 FILLER_0_32_309
*1127 FILLER_0_32_321
*1128 FILLER_0_32_333
*1129 FILLER_0_32_345
*1130 FILLER_0_32_41
*1131 FILLER_0_32_53
*1132 FILLER_0_32_65
*1133 FILLER_0_32_77
*1134 FILLER_0_32_83
*1135 FILLER_0_32_85
*1136 FILLER_0_32_97
*1137 FILLER_0_33_105
*1138 FILLER_0_33_111
*1139 FILLER_0_33_113
*1140 FILLER_0_33_125
*1141 FILLER_0_33_15
*1142 FILLER_0_33_156
*1143 FILLER_0_33_177
*1144 FILLER_0_33_195
*1145 FILLER_0_33_201
*1146 FILLER_0_33_213
*1147 FILLER_0_33_221
*1148 FILLER_0_33_225
*1149 FILLER_0_33_244
*1150 FILLER_0_33_27
*1151 FILLER_0_33_270
*1152 FILLER_0_33_278
*1153 FILLER_0_33_281
*1154 FILLER_0_33_296
*1155 FILLER_0_33_3
*1156 FILLER_0_33_308
*1157 FILLER_0_33_320
*1158 FILLER_0_33_332
*1159 FILLER_0_33_337
*1160 FILLER_0_33_349
*1161 FILLER_0_33_39
*1162 FILLER_0_33_51
*1163 FILLER_0_33_55
*1164 FILLER_0_33_57
*1165 FILLER_0_33_69
*1166 FILLER_0_33_81
*1167 FILLER_0_33_93
*1168 FILLER_0_34_109
*1169 FILLER_0_34_121
*1170 FILLER_0_34_133
*1171 FILLER_0_34_139
*1172 FILLER_0_34_141
*1173 FILLER_0_34_147
*1174 FILLER_0_34_15
*1175 FILLER_0_34_175
*1176 FILLER_0_34_191
*1177 FILLER_0_34_195
*1178 FILLER_0_34_197
*1179 FILLER_0_34_203
*1180 FILLER_0_34_214
*1181 FILLER_0_34_225
*1182 FILLER_0_34_256
*1183 FILLER_0_34_267
*1184 FILLER_0_34_27
*1185 FILLER_0_34_29
*1186 FILLER_0_34_3
*1187 FILLER_0_34_303
*1188 FILLER_0_34_325
*1189 FILLER_0_34_330
*1190 FILLER_0_34_41
*1191 FILLER_0_34_53
*1192 FILLER_0_34_65
*1193 FILLER_0_34_77
*1194 FILLER_0_34_83
*1195 FILLER_0_34_85
*1196 FILLER_0_34_97
*1197 FILLER_0_35_105
*1198 FILLER_0_35_111
*1199 FILLER_0_35_113
*1200 FILLER_0_35_121
*1201 FILLER_0_35_138
*1202 FILLER_0_35_147
*1203 FILLER_0_35_15
*1204 FILLER_0_35_159
*1205 FILLER_0_35_167
*1206 FILLER_0_35_169
*1207 FILLER_0_35_192
*1208 FILLER_0_35_200
*1209 FILLER_0_35_208
*1210 FILLER_0_35_220
*1211 FILLER_0_35_254
*1212 FILLER_0_35_266
*1213 FILLER_0_35_27
*1214 FILLER_0_35_278
*1215 FILLER_0_35_287
*1216 FILLER_0_35_291
*1217 FILLER_0_35_3
*1218 FILLER_0_35_301
*1219 FILLER_0_35_309
*1220 FILLER_0_35_335
*1221 FILLER_0_35_337
*1222 FILLER_0_35_349
*1223 FILLER_0_35_39
*1224 FILLER_0_35_51
*1225 FILLER_0_35_55
*1226 FILLER_0_35_57
*1227 FILLER_0_35_69
*1228 FILLER_0_35_81
*1229 FILLER_0_35_93
*1230 FILLER_0_36_101
*1231 FILLER_0_36_115
*1232 FILLER_0_36_123
*1233 FILLER_0_36_131
*1234 FILLER_0_36_139
*1235 FILLER_0_36_141
*1236 FILLER_0_36_15
*1237 FILLER_0_36_153
*1238 FILLER_0_36_165
*1239 FILLER_0_36_175
*1240 FILLER_0_36_187
*1241 FILLER_0_36_195
*1242 FILLER_0_36_210
*1243 FILLER_0_36_218
*1244 FILLER_0_36_224
*1245 FILLER_0_36_228
*1246 FILLER_0_36_237
*1247 FILLER_0_36_245
*1248 FILLER_0_36_251
*1249 FILLER_0_36_267
*1250 FILLER_0_36_27
*1251 FILLER_0_36_287
*1252 FILLER_0_36_29
*1253 FILLER_0_36_3
*1254 FILLER_0_36_300
*1255 FILLER_0_36_309
*1256 FILLER_0_36_323
*1257 FILLER_0_36_350
*1258 FILLER_0_36_41
*1259 FILLER_0_36_53
*1260 FILLER_0_36_65
*1261 FILLER_0_36_77
*1262 FILLER_0_36_83
*1263 FILLER_0_36_85
*1264 FILLER_0_36_97
*1265 FILLER_0_37_101
*1266 FILLER_0_37_116
*1267 FILLER_0_37_122
*1268 FILLER_0_37_141
*1269 FILLER_0_37_15
*1270 FILLER_0_37_166
*1271 FILLER_0_37_169
*1272 FILLER_0_37_181
*1273 FILLER_0_37_198
*1274 FILLER_0_37_206
*1275 FILLER_0_37_223
*1276 FILLER_0_37_250
*1277 FILLER_0_37_260
*1278 FILLER_0_37_27
*1279 FILLER_0_37_272
*1280 FILLER_0_37_3
*1281 FILLER_0_37_311
*1282 FILLER_0_37_333
*1283 FILLER_0_37_345
*1284 FILLER_0_37_39
*1285 FILLER_0_37_51
*1286 FILLER_0_37_55
*1287 FILLER_0_37_57
*1288 FILLER_0_37_69
*1289 FILLER_0_37_81
*1290 FILLER_0_37_93
*1291 FILLER_0_38_101
*1292 FILLER_0_38_105
*1293 FILLER_0_38_110
*1294 FILLER_0_38_121
*1295 FILLER_0_38_132
*1296 FILLER_0_38_14
*1297 FILLER_0_38_156
*1298 FILLER_0_38_165
*1299 FILLER_0_38_169
*1300 FILLER_0_38_18
*1301 FILLER_0_38_181
*1302 FILLER_0_38_193
*1303 FILLER_0_38_197
*1304 FILLER_0_38_219
*1305 FILLER_0_38_22
*1306 FILLER_0_38_223
*1307 FILLER_0_38_228
*1308 FILLER_0_38_239
*1309 FILLER_0_38_263
*1310 FILLER_0_38_267
*1311 FILLER_0_38_279
*1312 FILLER_0_38_285
*1313 FILLER_0_38_297
*1314 FILLER_0_38_3
*1315 FILLER_0_38_302
*1316 FILLER_0_38_319
*1317 FILLER_0_38_32
*1318 FILLER_0_38_340
*1319 FILLER_0_38_348
*1320 FILLER_0_38_38
*1321 FILLER_0_38_42
*1322 FILLER_0_38_46
*1323 FILLER_0_38_50
*1324 FILLER_0_38_54
*1325 FILLER_0_38_57
*1326 FILLER_0_38_62
*1327 FILLER_0_38_66
*1328 FILLER_0_38_70
*1329 FILLER_0_38_74
*1330 FILLER_0_38_78
*1331 FILLER_0_38_88
*1332 FILLER_0_38_96
*1333 FILLER_0_3_105
*1334 FILLER_0_3_111
*1335 FILLER_0_3_113
*1336 FILLER_0_3_125
*1337 FILLER_0_3_137
*1338 FILLER_0_3_149
*1339 FILLER_0_3_15
*1340 FILLER_0_3_161
*1341 FILLER_0_3_167
*1342 FILLER_0_3_169
*1343 FILLER_0_3_181
*1344 FILLER_0_3_193
*1345 FILLER_0_3_205
*1346 FILLER_0_3_217
*1347 FILLER_0_3_223
*1348 FILLER_0_3_225
*1349 FILLER_0_3_237
*1350 FILLER_0_3_249
*1351 FILLER_0_3_261
*1352 FILLER_0_3_27
*1353 FILLER_0_3_273
*1354 FILLER_0_3_279
*1355 FILLER_0_3_281
*1356 FILLER_0_3_293
*1357 FILLER_0_3_3
*1358 FILLER_0_3_305
*1359 FILLER_0_3_317
*1360 FILLER_0_3_329
*1361 FILLER_0_3_335
*1362 FILLER_0_3_337
*1363 FILLER_0_3_349
*1364 FILLER_0_3_39
*1365 FILLER_0_3_51
*1366 FILLER_0_3_55
*1367 FILLER_0_3_57
*1368 FILLER_0_3_69
*1369 FILLER_0_3_81
*1370 FILLER_0_3_93
*1371 FILLER_0_4_109
*1372 FILLER_0_4_121
*1373 FILLER_0_4_133
*1374 FILLER_0_4_139
*1375 FILLER_0_4_141
*1376 FILLER_0_4_15
*1377 FILLER_0_4_153
*1378 FILLER_0_4_165
*1379 FILLER_0_4_177
*1380 FILLER_0_4_189
*1381 FILLER_0_4_195
*1382 FILLER_0_4_197
*1383 FILLER_0_4_209
*1384 FILLER_0_4_221
*1385 FILLER_0_4_233
*1386 FILLER_0_4_245
*1387 FILLER_0_4_251
*1388 FILLER_0_4_253
*1389 FILLER_0_4_265
*1390 FILLER_0_4_27
*1391 FILLER_0_4_277
*1392 FILLER_0_4_289
*1393 FILLER_0_4_29
*1394 FILLER_0_4_3
*1395 FILLER_0_4_301
*1396 FILLER_0_4_307
*1397 FILLER_0_4_309
*1398 FILLER_0_4_321
*1399 FILLER_0_4_333
*1400 FILLER_0_4_345
*1401 FILLER_0_4_41
*1402 FILLER_0_4_53
*1403 FILLER_0_4_65
*1404 FILLER_0_4_77
*1405 FILLER_0_4_83
*1406 FILLER_0_4_85
*1407 FILLER_0_4_97
*1408 FILLER_0_5_105
*1409 FILLER_0_5_111
*1410 FILLER_0_5_113
*1411 FILLER_0_5_125
*1412 FILLER_0_5_137
*1413 FILLER_0_5_149
*1414 FILLER_0_5_15
*1415 FILLER_0_5_161
*1416 FILLER_0_5_167
*1417 FILLER_0_5_169
*1418 FILLER_0_5_181
*1419 FILLER_0_5_193
*1420 FILLER_0_5_205
*1421 FILLER_0_5_217
*1422 FILLER_0_5_223
*1423 FILLER_0_5_225
*1424 FILLER_0_5_237
*1425 FILLER_0_5_249
*1426 FILLER_0_5_261
*1427 FILLER_0_5_27
*1428 FILLER_0_5_273
*1429 FILLER_0_5_279
*1430 FILLER_0_5_281
*1431 FILLER_0_5_293
*1432 FILLER_0_5_3
*1433 FILLER_0_5_305
*1434 FILLER_0_5_317
*1435 FILLER_0_5_329
*1436 FILLER_0_5_335
*1437 FILLER_0_5_337
*1438 FILLER_0_5_349
*1439 FILLER_0_5_39
*1440 FILLER_0_5_51
*1441 FILLER_0_5_55
*1442 FILLER_0_5_57
*1443 FILLER_0_5_69
*1444 FILLER_0_5_81
*1445 FILLER_0_5_93
*1446 FILLER_0_6_109
*1447 FILLER_0_6_121
*1448 FILLER_0_6_133
*1449 FILLER_0_6_139
*1450 FILLER_0_6_141
*1451 FILLER_0_6_15
*1452 FILLER_0_6_153
*1453 FILLER_0_6_165
*1454 FILLER_0_6_177
*1455 FILLER_0_6_189
*1456 FILLER_0_6_195
*1457 FILLER_0_6_197
*1458 FILLER_0_6_209
*1459 FILLER_0_6_221
*1460 FILLER_0_6_233
*1461 FILLER_0_6_245
*1462 FILLER_0_6_251
*1463 FILLER_0_6_253
*1464 FILLER_0_6_265
*1465 FILLER_0_6_27
*1466 FILLER_0_6_277
*1467 FILLER_0_6_289
*1468 FILLER_0_6_29
*1469 FILLER_0_6_3
*1470 FILLER_0_6_301
*1471 FILLER_0_6_307
*1472 FILLER_0_6_309
*1473 FILLER_0_6_321
*1474 FILLER_0_6_333
*1475 FILLER_0_6_345
*1476 FILLER_0_6_41
*1477 FILLER_0_6_53
*1478 FILLER_0_6_65
*1479 FILLER_0_6_77
*1480 FILLER_0_6_83
*1481 FILLER_0_6_85
*1482 FILLER_0_6_97
*1483 FILLER_0_7_105