*SPEF "ieee 1481-1999"
*DESIGN "tt_um_LEOGLM_hamming_code_top"
*DATE "11:11:11 Fri 11 11, 1111"
*VENDOR "OpenRCX"
*PROGRAM "Parallel Extraction"
*VERSION "1.0"
*DESIGN_FLOW "NAME_SCOPE LOCAL" "PIN_CAP NONE"
*DIVIDER /
*DELIMITER :
*BUS_DELIMITER []
*T_UNIT 1 NS
*C_UNIT 1 PF
*R_UNIT 1 OHM
*L_UNIT 1 HENRY

*NAME_MAP
*3 clk
*4 ena
*5 rst_n
*6 ui_in[0]
*7 ui_in[1]
*8 ui_in[2]
*9 ui_in[3]
*10 ui_in[4]
*11 ui_in[5]
*12 ui_in[6]
*13 ui_in[7]
*14 uio_in[0]
*15 uio_in[1]
*16 uio_in[2]
*17 uio_in[3]
*18 uio_in[4]
*19 uio_in[5]
*20 uio_in[6]
*21 uio_in[7]
*22 uio_oe[0]
*23 uio_oe[1]
*24 uio_oe[2]
*25 uio_oe[3]
*26 uio_oe[4]
*27 uio_oe[5]
*28 uio_oe[6]
*29 uio_oe[7]
*30 uio_out[0]
*31 uio_out[1]
*32 uio_out[2]
*33 uio_out[3]
*34 uio_out[4]
*35 net26
*36 net27
*37 net28
*38 uo_out[0]
*39 uo_out[1]
*40 uo_out[2]
*41 uo_out[3]
*42 uo_out[4]
*43 uo_out[5]
*44 uo_out[6]
*45 uo_out[7]
*46 A1\.F1\.coded_msg\[0\]
*47 A1\.F1\.coded_msg\[10\]
*48 A1\.F1\.coded_msg\[11\]
*49 A1\.F1\.coded_msg\[12\]
*50 A1\.F1\.coded_msg\[13\]
*51 A1\.F1\.coded_msg\[14\]
*52 A1\.F1\.coded_msg\[1\]
*53 A1\.F1\.coded_msg\[2\]
*54 A1\.F1\.coded_msg\[3\]
*55 A1\.F1\.coded_msg\[4\]
*56 A1\.F1\.coded_msg\[5\]
*57 A1\.F1\.coded_msg\[6\]
*58 A1\.F1\.coded_msg\[7\]
*59 A1\.F1\.coded_msg\[8\]
*60 A1\.F1\.coded_msg\[9\]
*61 A1\.F1\.msg_in_coder\[0\]
*62 A1\.F1\.msg_in_coder\[10\]
*63 A1\.F1\.msg_in_coder\[1\]
*64 A1\.F1\.msg_in_coder\[2\]
*65 A1\.F1\.msg_in_coder\[3\]
*66 A1\.F1\.msg_in_coder\[4\]
*67 A1\.F1\.msg_in_coder\[5\]
*68 A1\.F1\.msg_in_coder\[6\]
*69 A1\.F1\.msg_in_coder\[7\]
*70 A1\.F1\.msg_in_coder\[8\]
*71 A1\.F1\.msg_in_coder\[9\]
*72 A1\.U1\.enable_tx
*73 A1\.U1\.msg\[10\]
*74 A1\.U1\.msg\[11\]
*75 A1\.U1\.msg\[12\]
*76 A1\.U1\.msg\[13\]
*77 A1\.U1\.msg\[14\]
*78 A1\.U1\.msg\[15\]
*79 A1\.U1\.msg\[16\]
*80 A1\.U1\.msg\[1\]
*81 A1\.U1\.msg\[2\]
*82 A1\.U1\.msg\[3\]
*83 A1\.U1\.msg\[4\]
*84 A1\.U1\.msg\[5\]
*85 A1\.U1\.msg\[6\]
*86 A1\.U1\.msg\[7\]
*87 A1\.U1\.msg\[8\]
*88 A1\.U1\.msg\[9\]
*89 B1\.F1\.msg\[0\]
*90 B1\.F1\.msg\[10\]
*91 B1\.F1\.msg\[12\]
*92 B1\.F1\.msg\[1\]
*93 B1\.F1\.msg\[2\]
*94 B1\.F1\.msg\[3\]
*95 B1\.F1\.msg\[4\]
*96 B1\.F1\.msg\[5\]
*97 B1\.F1\.msg\[6\]
*98 B1\.F1\.msg\[8\]
*99 B1\.F1\.msg\[9\]
*100 B1\.F1\.msg_in_decoder\[0\]
*101 B1\.F1\.msg_in_decoder\[10\]
*102 B1\.F1\.msg_in_decoder\[11\]
*103 B1\.F1\.msg_in_decoder\[12\]
*104 B1\.F1\.msg_in_decoder\[13\]
*105 B1\.F1\.msg_in_decoder\[14\]
*106 B1\.F1\.msg_in_decoder\[1\]
*107 B1\.F1\.msg_in_decoder\[2\]
*108 B1\.F1\.msg_in_decoder\[3\]
*109 B1\.F1\.msg_in_decoder\[4\]
*110 B1\.F1\.msg_in_decoder\[5\]
*111 B1\.F1\.msg_in_decoder\[6\]
*112 B1\.F1\.msg_in_decoder\[7\]
*113 B1\.F1\.msg_in_decoder\[8\]
*114 B1\.F1\.msg_in_decoder\[9\]
*115 B1\.U1\.counter\[0\]
*116 B1\.U1\.counter\[1\]
*117 B1\.U1\.counter\[2\]
*118 B1\.U1\.counter\[3\]
*119 B1\.U1\.counter\[4\]
*120 B1\.U1\.enable
*121 B1\.U1\.msg\[10\]
*122 B1\.U1\.msg\[11\]
*123 B1\.U1\.msg\[12\]
*124 B1\.U1\.msg\[13\]
*125 B1\.U1\.msg\[14\]
*126 B1\.U1\.msg\[15\]
*127 B1\.U1\.msg\[1\]
*128 B1\.U1\.msg\[2\]
*129 B1\.U1\.msg\[3\]
*130 B1\.U1\.msg\[4\]
*131 B1\.U1\.msg\[5\]
*132 B1\.U1\.msg\[6\]
*133 B1\.U1\.msg\[7\]
*134 B1\.U1\.msg\[8\]
*135 B1\.U1\.msg\[9\]
*136 B1\.U1\.msg_in_rx
*137 _000_
*138 _001_
*139 _002_
*140 _003_
*141 _004_
*142 _005_
*143 _006_
*144 _007_
*145 _008_
*146 _009_
*147 _010_
*148 _011_
*149 _012_
*150 _013_
*151 _014_
*152 _015_
*153 _016_
*154 _017_
*155 _018_
*156 _019_
*157 _020_
*158 _021_
*159 _022_
*160 _023_
*161 _024_
*162 _025_
*163 _026_
*164 _027_
*165 _028_
*166 _029_
*167 _030_
*168 _031_
*169 _032_
*170 _033_
*171 _034_
*172 _035_
*173 _036_
*174 _037_
*175 _038_
*176 _039_
*177 _040_
*178 _041_
*179 _042_
*180 _043_
*181 _044_
*182 _045_
*183 _046_
*184 _047_
*185 _048_
*186 _049_
*187 _050_
*188 _051_
*189 _052_
*190 _053_
*191 _054_
*192 _055_
*193 _056_
*194 _057_
*195 _058_
*196 _059_
*197 _060_
*198 _061_
*199 _062_
*200 _063_
*201 _064_
*202 _065_
*203 _066_
*204 _067_
*205 _068_
*206 _069_
*207 _070_
*208 _071_
*209 _072_
*210 _073_
*211 _074_
*212 _075_
*213 _076_
*214 _077_
*215 _078_
*216 _079_
*217 _080_
*218 _081_
*219 _082_
*220 _083_
*221 _084_
*222 _085_
*223 _086_
*224 _087_
*225 _088_
*226 _089_
*227 _090_
*228 _091_
*229 _092_
*230 _093_
*231 _094_
*232 _095_
*233 _096_
*234 _097_
*235 _098_
*236 _099_
*237 _100_
*238 _101_
*239 _102_
*240 _103_
*241 _104_
*242 _105_
*243 _106_
*244 _107_
*245 _108_
*246 _109_
*247 _110_
*248 _111_
*249 _112_
*250 _113_
*251 _114_
*252 _115_
*253 _116_
*254 _117_
*255 _118_
*256 _119_
*257 _120_
*258 _121_
*259 _122_
*260 _123_
*261 _124_
*262 _125_
*263 _126_
*264 _127_
*265 _128_
*266 _129_
*267 _130_
*268 _131_
*269 _132_
*270 _133_
*271 _134_
*272 _135_
*273 _136_
*274 _137_
*275 _138_
*276 _139_
*277 _140_
*278 _141_
*279 _142_
*280 _143_
*281 _144_
*282 _145_
*283 _146_
*284 _147_
*285 _148_
*286 _149_
*287 _150_
*288 _151_
*289 _152_
*290 _153_
*291 _154_
*292 _155_
*293 _156_
*294 _157_
*295 _158_
*296 _159_
*297 _160_
*298 _161_
*299 _162_
*300 _163_
*301 _164_
*302 _165_
*303 _166_
*304 _167_
*305 _168_
*306 _169_
*307 _170_
*308 _171_
*309 _172_
*310 _173_
*311 _174_
*312 _175_
*313 _176_
*314 _177_
*315 _178_
*316 _179_
*317 _180_
*318 _181_
*319 _182_
*320 _183_
*321 _184_
*322 _185_
*323 _186_
*324 _187_
*325 _188_
*326 _189_
*327 _190_
*328 _191_
*329 _192_
*330 _193_
*331 _194_
*332 _195_
*333 _196_
*334 _197_
*335 _198_
*336 _199_
*337 _200_
*338 _201_
*339 _202_
*340 _203_
*341 _204_
*342 _205_
*343 _206_
*344 _207_
*345 _208_
*346 _209_
*347 _210_
*348 _211_
*349 _212_
*350 _213_
*351 _214_
*352 _215_
*353 _216_
*354 _217_
*355 _218_
*356 _219_
*357 _220_
*358 _221_
*359 clknet_0_clk
*360 clknet_2_0__leaf_clk
*361 clknet_2_1__leaf_clk
*362 clknet_2_2__leaf_clk
*363 clknet_2_3__leaf_clk
*364 net1
*365 net10
*366 net11
*367 net12
*368 net13
*369 net14
*370 net15
*371 net16
*372 net17
*373 net18
*374 net19
*375 net2
*376 net20
*377 net21
*378 net22
*379 net23
*380 net24
*381 net25
*382 net29
*383 net3
*384 net30
*385 net31
*386 net32
*387 net33
*388 net34
*389 net35
*390 net36
*391 net37
*392 net38
*393 net39
*394 net4
*395 net40
*396 net41
*397 net42
*398 net43
*399 net44
*400 net45
*401 net46
*402 net47
*403 net48
*404 net49
*405 net5
*406 net50
*407 net51
*408 net52
*409 net53
*410 net6
*411 net7
*412 net8
*413 net9
*414 state
*415 FILLER_0_0_109
*416 FILLER_0_0_113
*417 FILLER_0_0_125
*418 FILLER_0_0_137
*419 FILLER_0_0_141
*420 FILLER_0_0_15
*421 FILLER_0_0_153
*422 FILLER_0_0_165
*423 FILLER_0_0_169
*424 FILLER_0_0_181
*425 FILLER_0_0_193
*426 FILLER_0_0_197
*427 FILLER_0_0_209
*428 FILLER_0_0_221
*429 FILLER_0_0_225
*430 FILLER_0_0_237
*431 FILLER_0_0_249
*432 FILLER_0_0_253
*433 FILLER_0_0_265
*434 FILLER_0_0_27
*435 FILLER_0_0_277
*436 FILLER_0_0_281
*437 FILLER_0_0_29
*438 FILLER_0_0_293
*439 FILLER_0_0_3
*440 FILLER_0_0_305
*441 FILLER_0_0_309
*442 FILLER_0_0_321
*443 FILLER_0_0_333
*444 FILLER_0_0_337
*445 FILLER_0_0_349
*446 FILLER_0_0_41
*447 FILLER_0_0_53
*448 FILLER_0_0_57
*449 FILLER_0_0_69
*450 FILLER_0_0_81
*451 FILLER_0_0_85
*452 FILLER_0_0_97
*453 FILLER_0_10_109
*454 FILLER_0_10_121
*455 FILLER_0_10_133
*456 FILLER_0_10_139
*457 FILLER_0_10_141
*458 FILLER_0_10_15
*459 FILLER_0_10_153
*460 FILLER_0_10_165
*461 FILLER_0_10_177
*462 FILLER_0_10_189
*463 FILLER_0_10_195
*464 FILLER_0_10_197
*465 FILLER_0_10_209
*466 FILLER_0_10_221
*467 FILLER_0_10_233
*468 FILLER_0_10_245
*469 FILLER_0_10_251
*470 FILLER_0_10_253
*471 FILLER_0_10_265
*472 FILLER_0_10_27
*473 FILLER_0_10_277
*474 FILLER_0_10_289
*475 FILLER_0_10_29
*476 FILLER_0_10_3
*477 FILLER_0_10_301
*478 FILLER_0_10_307
*479 FILLER_0_10_309
*480 FILLER_0_10_321
*481 FILLER_0_10_333
*482 FILLER_0_10_345
*483 FILLER_0_10_41
*484 FILLER_0_10_53
*485 FILLER_0_10_65
*486 FILLER_0_10_77
*487 FILLER_0_10_83
*488 FILLER_0_10_85
*489 FILLER_0_10_97
*490 FILLER_0_11_105
*491 FILLER_0_11_111
*492 FILLER_0_11_113
*493 FILLER_0_11_125
*494 FILLER_0_11_137
*495 FILLER_0_11_149
*496 FILLER_0_11_15
*497 FILLER_0_11_161
*498 FILLER_0_11_167
*499 FILLER_0_11_169
*500 FILLER_0_11_181
*501 FILLER_0_11_193
*502 FILLER_0_11_205
*503 FILLER_0_11_217
*504 FILLER_0_11_223
*505 FILLER_0_11_225
*506 FILLER_0_11_237
*507 FILLER_0_11_249
*508 FILLER_0_11_261
*509 FILLER_0_11_27
*510 FILLER_0_11_273
*511 FILLER_0_11_279
*512 FILLER_0_11_281
*513 FILLER_0_11_293
*514 FILLER_0_11_3
*515 FILLER_0_11_305
*516 FILLER_0_11_317
*517 FILLER_0_11_329
*518 FILLER_0_11_335
*519 FILLER_0_11_337
*520 FILLER_0_11_349
*521 FILLER_0_11_39
*522 FILLER_0_11_51
*523 FILLER_0_11_55
*524 FILLER_0_11_57
*525 FILLER_0_11_69
*526 FILLER_0_11_81
*527 FILLER_0_11_93
*528 FILLER_0_12_109
*529 FILLER_0_12_121
*530 FILLER_0_12_133
*531 FILLER_0_12_139
*532 FILLER_0_12_141
*533 FILLER_0_12_15
*534 FILLER_0_12_153
*535 FILLER_0_12_165
*536 FILLER_0_12_177
*537 FILLER_0_12_189
*538 FILLER_0_12_195
*539 FILLER_0_12_197
*540 FILLER_0_12_209
*541 FILLER_0_12_221
*542 FILLER_0_12_233
*543 FILLER_0_12_245
*544 FILLER_0_12_251
*545 FILLER_0_12_253
*546 FILLER_0_12_265
*547 FILLER_0_12_27
*548 FILLER_0_12_277
*549 FILLER_0_12_289
*550 FILLER_0_12_29
*551 FILLER_0_12_3
*552 FILLER_0_12_301
*553 FILLER_0_12_307
*554 FILLER_0_12_309
*555 FILLER_0_12_321
*556 FILLER_0_12_333
*557 FILLER_0_12_345
*558 FILLER_0_12_41
*559 FILLER_0_12_53
*560 FILLER_0_12_65
*561 FILLER_0_12_77
*562 FILLER_0_12_83
*563 FILLER_0_12_85
*564 FILLER_0_12_97
*565 FILLER_0_13_105
*566 FILLER_0_13_111
*567 FILLER_0_13_113
*568 FILLER_0_13_125
*569 FILLER_0_13_137
*570 FILLER_0_13_149
*571 FILLER_0_13_15
*572 FILLER_0_13_161
*573 FILLER_0_13_167
*574 FILLER_0_13_169
*575 FILLER_0_13_181
*576 FILLER_0_13_193
*577 FILLER_0_13_205
*578 FILLER_0_13_217
*579 FILLER_0_13_223
*580 FILLER_0_13_225
*581 FILLER_0_13_237
*582 FILLER_0_13_249
*583 FILLER_0_13_261
*584 FILLER_0_13_27
*585 FILLER_0_13_273
*586 FILLER_0_13_279
*587 FILLER_0_13_281
*588 FILLER_0_13_293
*589 FILLER_0_13_3
*590 FILLER_0_13_305
*591 FILLER_0_13_317
*592 FILLER_0_13_329
*593 FILLER_0_13_335
*594 FILLER_0_13_337
*595 FILLER_0_13_349
*596 FILLER_0_13_39
*597 FILLER_0_13_51
*598 FILLER_0_13_55
*599 FILLER_0_13_57
*600 FILLER_0_13_69
*601 FILLER_0_13_81
*602 FILLER_0_13_93
*603 FILLER_0_14_109
*604 FILLER_0_14_121
*605 FILLER_0_14_133
*606 FILLER_0_14_139
*607 FILLER_0_14_141
*608 FILLER_0_14_15
*609 FILLER_0_14_153
*610 FILLER_0_14_165
*611 FILLER_0_14_177
*612 FILLER_0_14_189
*613 FILLER_0_14_195
*614 FILLER_0_14_197
*615 FILLER_0_14_209
*616 FILLER_0_14_221
*617 FILLER_0_14_233
*618 FILLER_0_14_245
*619 FILLER_0_14_251
*620 FILLER_0_14_253
*621 FILLER_0_14_265
*622 FILLER_0_14_27
*623 FILLER_0_14_277
*624 FILLER_0_14_289
*625 FILLER_0_14_29
*626 FILLER_0_14_3
*627 FILLER_0_14_301
*628 FILLER_0_14_307
*629 FILLER_0_14_309
*630 FILLER_0_14_321
*631 FILLER_0_14_333
*632 FILLER_0_14_345
*633 FILLER_0_14_41
*634 FILLER_0_14_53
*635 FILLER_0_14_65
*636 FILLER_0_14_77
*637 FILLER_0_14_83
*638 FILLER_0_14_85
*639 FILLER_0_14_97
*640 FILLER_0_15_105
*641 FILLER_0_15_111
*642 FILLER_0_15_113
*643 FILLER_0_15_125
*644 FILLER_0_15_137
*645 FILLER_0_15_149
*646 FILLER_0_15_15
*647 FILLER_0_15_161
*648 FILLER_0_15_167
*649 FILLER_0_15_169
*650 FILLER_0_15_181
*651 FILLER_0_15_193
*652 FILLER_0_15_205
*653 FILLER_0_15_217
*654 FILLER_0_15_223
*655 FILLER_0_15_225
*656 FILLER_0_15_237
*657 FILLER_0_15_249
*658 FILLER_0_15_261
*659 FILLER_0_15_27
*660 FILLER_0_15_273
*661 FILLER_0_15_279
*662 FILLER_0_15_281
*663 FILLER_0_15_293
*664 FILLER_0_15_3
*665 FILLER_0_15_305
*666 FILLER_0_15_317
*667 FILLER_0_15_329
*668 FILLER_0_15_335
*669 FILLER_0_15_337
*670 FILLER_0_15_349
*671 FILLER_0_15_39
*672 FILLER_0_15_51
*673 FILLER_0_15_55
*674 FILLER_0_15_57
*675 FILLER_0_15_69
*676 FILLER_0_15_81
*677 FILLER_0_15_93
*678 FILLER_0_16_104
*679 FILLER_0_16_115
*680 FILLER_0_16_127
*681 FILLER_0_16_139
*682 FILLER_0_16_141
*683 FILLER_0_16_15
*684 FILLER_0_16_153
*685 FILLER_0_16_165
*686 FILLER_0_16_177
*687 FILLER_0_16_189
*688 FILLER_0_16_195
*689 FILLER_0_16_197
*690 FILLER_0_16_209
*691 FILLER_0_16_221
*692 FILLER_0_16_233
*693 FILLER_0_16_245
*694 FILLER_0_16_251
*695 FILLER_0_16_253
*696 FILLER_0_16_265
*697 FILLER_0_16_27
*698 FILLER_0_16_277
*699 FILLER_0_16_289
*700 FILLER_0_16_29
*701 FILLER_0_16_3
*702 FILLER_0_16_301
*703 FILLER_0_16_307
*704 FILLER_0_16_309
*705 FILLER_0_16_321
*706 FILLER_0_16_333
*707 FILLER_0_16_345
*708 FILLER_0_16_41
*709 FILLER_0_16_53
*710 FILLER_0_16_65
*711 FILLER_0_16_72
*712 FILLER_0_16_92
*713 FILLER_0_17_110
*714 FILLER_0_17_134
*715 FILLER_0_17_146
*716 FILLER_0_17_158
*717 FILLER_0_17_166
*718 FILLER_0_17_169
*719 FILLER_0_17_181
*720 FILLER_0_17_193
*721 FILLER_0_17_205
*722 FILLER_0_17_217
*723 FILLER_0_17_223
*724 FILLER_0_17_225
*725 FILLER_0_17_237
*726 FILLER_0_17_249
*727 FILLER_0_17_261
*728 FILLER_0_17_273
*729 FILLER_0_17_279
*730 FILLER_0_17_281
*731 FILLER_0_17_293
*732 FILLER_0_17_3
*733 FILLER_0_17_305
*734 FILLER_0_17_317
*735 FILLER_0_17_329
*736 FILLER_0_17_335
*737 FILLER_0_17_337
*738 FILLER_0_17_349
*739 FILLER_0_17_36
*740 FILLER_0_17_53
*741 FILLER_0_17_57
*742 FILLER_0_17_83
*743 FILLER_0_18_104
*744 FILLER_0_18_112
*745 FILLER_0_18_135
*746 FILLER_0_18_139
*747 FILLER_0_18_141
*748 FILLER_0_18_15
*749 FILLER_0_18_153
*750 FILLER_0_18_165
*751 FILLER_0_18_177
*752 FILLER_0_18_189
*753 FILLER_0_18_195
*754 FILLER_0_18_197
*755 FILLER_0_18_209
*756 FILLER_0_18_21
*757 FILLER_0_18_221
*758 FILLER_0_18_233
*759 FILLER_0_18_245
*760 FILLER_0_18_25
*761 FILLER_0_18_251
*762 FILLER_0_18_253
*763 FILLER_0_18_265
*764 FILLER_0_18_277
*765 FILLER_0_18_289
*766 FILLER_0_18_3
*767 FILLER_0_18_301
*768 FILLER_0_18_307
*769 FILLER_0_18_309
*770 FILLER_0_18_32
*771 FILLER_0_18_321
*772 FILLER_0_18_333
*773 FILLER_0_18_345
*774 FILLER_0_18_42
*775 FILLER_0_18_82
*776 FILLER_0_18_85
*777 FILLER_0_19_111
*778 FILLER_0_19_116
*779 FILLER_0_19_128
*780 FILLER_0_19_140
*781 FILLER_0_19_144
*782 FILLER_0_19_15
*783 FILLER_0_19_166
*784 FILLER_0_19_169
*785 FILLER_0_19_181
*786 FILLER_0_19_193
*787 FILLER_0_19_205
*788 FILLER_0_19_217
*789 FILLER_0_19_223
*790 FILLER_0_19_225
*791 FILLER_0_19_237
*792 FILLER_0_19_249
*793 FILLER_0_19_261
*794 FILLER_0_19_273
*795 FILLER_0_19_279
*796 FILLER_0_19_281
*797 FILLER_0_19_293
*798 FILLER_0_19_3
*799 FILLER_0_19_305
*800 FILLER_0_19_317
*801 FILLER_0_19_329
*802 FILLER_0_19_335
*803 FILLER_0_19_337
*804 FILLER_0_19_349
*805 FILLER_0_19_44
*806 FILLER_0_19_57
*807 FILLER_0_19_71
*808 FILLER_0_19_83
*809 FILLER_0_19_93
*810 FILLER_0_19_97
*811 FILLER_0_1_105
*812 FILLER_0_1_111
*813 FILLER_0_1_113
*814 FILLER_0_1_125
*815 FILLER_0_1_137
*816 FILLER_0_1_149
*817 FILLER_0_1_15
*818 FILLER_0_1_161
*819 FILLER_0_1_167
*820 FILLER_0_1_169
*821 FILLER_0_1_181
*822 FILLER_0_1_193
*823 FILLER_0_1_205
*824 FILLER_0_1_217
*825 FILLER_0_1_223
*826 FILLER_0_1_225
*827 FILLER_0_1_237
*828 FILLER_0_1_249
*829 FILLER_0_1_261
*830 FILLER_0_1_27
*831 FILLER_0_1_273
*832 FILLER_0_1_279
*833 FILLER_0_1_281
*834 FILLER_0_1_293
*835 FILLER_0_1_3
*836 FILLER_0_1_305
*837 FILLER_0_1_317
*838 FILLER_0_1_329
*839 FILLER_0_1_335
*840 FILLER_0_1_337
*841 FILLER_0_1_349
*842 FILLER_0_1_39
*843 FILLER_0_1_51
*844 FILLER_0_1_55
*845 FILLER_0_1_57
*846 FILLER_0_1_69
*847 FILLER_0_1_81
*848 FILLER_0_1_93
*849 FILLER_0_20_104
*850 FILLER_0_20_110
*851 FILLER_0_20_122
*852 FILLER_0_20_134
*853 FILLER_0_20_141
*854 FILLER_0_20_145
*855 FILLER_0_20_15
*856 FILLER_0_20_152
*857 FILLER_0_20_182
*858 FILLER_0_20_194
*859 FILLER_0_20_197
*860 FILLER_0_20_209
*861 FILLER_0_20_22
*862 FILLER_0_20_221
*863 FILLER_0_20_233
*864 FILLER_0_20_245
*865 FILLER_0_20_251
*866 FILLER_0_20_253
*867 FILLER_0_20_265
*868 FILLER_0_20_277
*869 FILLER_0_20_289
*870 FILLER_0_20_29
*871 FILLER_0_20_3
*872 FILLER_0_20_301
*873 FILLER_0_20_307
*874 FILLER_0_20_309
*875 FILLER_0_20_321
*876 FILLER_0_20_333
*877 FILLER_0_20_345
*878 FILLER_0_20_44
*879 FILLER_0_20_56
*880 FILLER_0_20_73
*881 FILLER_0_20_80
*882 FILLER_0_20_93
*883 FILLER_0_20_97
*884 FILLER_0_21_11
*885 FILLER_0_21_113
*886 FILLER_0_21_131
*887 FILLER_0_21_136
*888 FILLER_0_21_148
*889 FILLER_0_21_167
*890 FILLER_0_21_181
*891 FILLER_0_21_205
*892 FILLER_0_21_217
*893 FILLER_0_21_223
*894 FILLER_0_21_225
*895 FILLER_0_21_237
*896 FILLER_0_21_249
*897 FILLER_0_21_261
*898 FILLER_0_21_273
*899 FILLER_0_21_279
*900 FILLER_0_21_281
*901 FILLER_0_21_293
*902 FILLER_0_21_3
*903 FILLER_0_21_305
*904 FILLER_0_21_317
*905 FILLER_0_21_329
*906 FILLER_0_21_335
*907 FILLER_0_21_337
*908 FILLER_0_21_349
*909 FILLER_0_21_43
*910 FILLER_0_21_55
*911 FILLER_0_21_57
*912 FILLER_0_21_61
*913 FILLER_0_21_71
*914 FILLER_0_21_89
*915 FILLER_0_21_98
*916 FILLER_0_22_133
*917 FILLER_0_22_139
*918 FILLER_0_22_141
*919 FILLER_0_22_147
*920 FILLER_0_22_15
*921 FILLER_0_22_158
*922 FILLER_0_22_197
*923 FILLER_0_22_209
*924 FILLER_0_22_221
*925 FILLER_0_22_233
*926 FILLER_0_22_245
*927 FILLER_0_22_251
*928 FILLER_0_22_253
*929 FILLER_0_22_265
*930 FILLER_0_22_27
*931 FILLER_0_22_277
*932 FILLER_0_22_289
*933 FILLER_0_22_29
*934 FILLER_0_22_3
*935 FILLER_0_22_301
*936 FILLER_0_22_307
*937 FILLER_0_22_309
*938 FILLER_0_22_321
*939 FILLER_0_22_333
*940 FILLER_0_22_345
*941 FILLER_0_22_39
*942 FILLER_0_22_51
*943 FILLER_0_22_78
*944 FILLER_0_23_142
*945 FILLER_0_23_146
*946 FILLER_0_23_15
*947 FILLER_0_23_169
*948 FILLER_0_23_181
*949 FILLER_0_23_206
*950 FILLER_0_23_218
*951 FILLER_0_23_225
*952 FILLER_0_23_237
*953 FILLER_0_23_249
*954 FILLER_0_23_261
*955 FILLER_0_23_273
*956 FILLER_0_23_279
*957 FILLER_0_23_281
*958 FILLER_0_23_293
*959 FILLER_0_23_3
*960 FILLER_0_23_305
*961 FILLER_0_23_317
*962 FILLER_0_23_329
*963 FILLER_0_23_335
*964 FILLER_0_23_337
*965 FILLER_0_23_349
*966 FILLER_0_23_40
*967 FILLER_0_23_52
*968 FILLER_0_23_83
*969 FILLER_0_23_92
*970 FILLER_0_24_11
*971 FILLER_0_24_141
*972 FILLER_0_24_149
*973 FILLER_0_24_156
*974 FILLER_0_24_160
*975 FILLER_0_24_175
*976 FILLER_0_24_183
*977 FILLER_0_24_193
*978 FILLER_0_24_197
*979 FILLER_0_24_209
*980 FILLER_0_24_221
*981 FILLER_0_24_233
*982 FILLER_0_24_245
*983 FILLER_0_24_251
*984 FILLER_0_24_253
*985 FILLER_0_24_265
*986 FILLER_0_24_277
*987 FILLER_0_24_289
*988 FILLER_0_24_29
*989 FILLER_0_24_3
*990 FILLER_0_24_301
*991 FILLER_0_24_307
*992 FILLER_0_24_309
*993 FILLER_0_24_321
*994 FILLER_0_24_333
*995 FILLER_0_24_345
*996 FILLER_0_24_39
*997 FILLER_0_24_51
*998 FILLER_0_24_60
*999 FILLER_0_24_71
*1000 FILLER_0_24_83
*1001 FILLER_0_24_94
*1002 FILLER_0_25_143
*1003 FILLER_0_25_155
*1004 FILLER_0_25_181
*1005 FILLER_0_25_193
*1006 FILLER_0_25_205
*1007 FILLER_0_25_217
*1008 FILLER_0_25_223
*1009 FILLER_0_25_225
*1010 FILLER_0_25_237
*1011 FILLER_0_25_249
*1012 FILLER_0_25_261
*1013 FILLER_0_25_273
*1014 FILLER_0_25_279
*1015 FILLER_0_25_281
*1016 FILLER_0_25_288
*1017 FILLER_0_25_296
*1018 FILLER_0_25_3
*1019 FILLER_0_25_305
*1020 FILLER_0_25_317
*1021 FILLER_0_25_329
*1022 FILLER_0_25_335
*1023 FILLER_0_25_337
*1024 FILLER_0_25_349
*1025 FILLER_0_25_57
*1026 FILLER_0_25_67
*1027 FILLER_0_25_92
*1028 FILLER_0_26_11
*1029 FILLER_0_26_123
*1030 FILLER_0_26_130
*1031 FILLER_0_26_138
*1032 FILLER_0_26_141
*1033 FILLER_0_26_149
*1034 FILLER_0_26_197
*1035 FILLER_0_26_209
*1036 FILLER_0_26_221
*1037 FILLER_0_26_233
*1038 FILLER_0_26_241
*1039 FILLER_0_26_251
*1040 FILLER_0_26_253
*1041 FILLER_0_26_3
*1042 FILLER_0_26_304
*1043 FILLER_0_26_309
*1044 FILLER_0_26_321
*1045 FILLER_0_26_333
*1046 FILLER_0_26_345
*1047 FILLER_0_26_38
*1048 FILLER_0_26_44
*1049 FILLER_0_26_75
*1050 FILLER_0_26_82
*1051 FILLER_0_26_97
*1052 FILLER_0_27_109
*1053 FILLER_0_27_11
*1054 FILLER_0_27_122
*1055 FILLER_0_27_135
*1056 FILLER_0_27_147
*1057 FILLER_0_27_155
*1058 FILLER_0_27_167
*1059 FILLER_0_27_204
*1060 FILLER_0_27_216
*1061 FILLER_0_27_225
*1062 FILLER_0_27_229
*1063 FILLER_0_27_262
*1064 FILLER_0_27_287
*1065 FILLER_0_27_3
*1066 FILLER_0_27_308
*1067 FILLER_0_27_320
*1068 FILLER_0_27_332
*1069 FILLER_0_27_337
*1070 FILLER_0_27_34
*1071 FILLER_0_27_349
*1072 FILLER_0_27_46
*1073 FILLER_0_27_54
*1074 FILLER_0_27_57
*1075 FILLER_0_27_68
*1076 FILLER_0_27_97
*1077 FILLER_0_28_109
*1078 FILLER_0_28_132
*1079 FILLER_0_28_148
*1080 FILLER_0_28_15
*1081 FILLER_0_28_160
*1082 FILLER_0_28_167
*1083 FILLER_0_28_21
*1084 FILLER_0_28_217
*1085 FILLER_0_28_25
*1086 FILLER_0_28_250
*1087 FILLER_0_28_297
*1088 FILLER_0_28_3
*1089 FILLER_0_28_305
*1090 FILLER_0_28_309
*1091 FILLER_0_28_350
*1092 FILLER_0_28_47
*1093 FILLER_0_28_69
*1094 FILLER_0_28_77
*1095 FILLER_0_28_83
*1096 FILLER_0_28_85
*1097 FILLER_0_28_97
*1098 FILLER_0_29_109
*1099 FILLER_0_29_113
*1100 FILLER_0_29_130
*1101 FILLER_0_29_15
*1102 FILLER_0_29_164
*1103 FILLER_0_29_169
*1104 FILLER_0_29_177
*1105 FILLER_0_29_194
*1106 FILLER_0_29_206
*1107 FILLER_0_29_221
*1108 FILLER_0_29_225
*1109 FILLER_0_29_229
*1110 FILLER_0_29_233
*1111 FILLER_0_29_266
*1112 FILLER_0_29_278
*1113 FILLER_0_29_281
*1114 FILLER_0_29_293
*1115 FILLER_0_29_3
*1116 FILLER_0_29_346
*1117 FILLER_0_29_350
*1118 FILLER_0_29_46
*1119 FILLER_0_29_54
*1120 FILLER_0_29_60
*1121 FILLER_0_29_73
*1122 FILLER_0_29_85
*1123 FILLER_0_29_97
*1124 FILLER_0_2_109
*1125 FILLER_0_2_121
*1126 FILLER_0_2_133
*1127 FILLER_0_2_139
*1128 FILLER_0_2_141
*1129 FILLER_0_2_15
*1130 FILLER_0_2_153
*1131 FILLER_0_2_165
*1132 FILLER_0_2_177
*1133 FILLER_0_2_189
*1134 FILLER_0_2_195
*1135 FILLER_0_2_197
*1136 FILLER_0_2_209
*1137 FILLER_0_2_221
*1138 FILLER_0_2_233
*1139 FILLER_0_2_245
*1140 FILLER_0_2_251
*1141 FILLER_0_2_253
*1142 FILLER_0_2_265
*1143 FILLER_0_2_27
*1144 FILLER_0_2_277
*1145 FILLER_0_2_289
*1146 FILLER_0_2_29
*1147 FILLER_0_2_3
*1148 FILLER_0_2_301
*1149 FILLER_0_2_307
*1150 FILLER_0_2_309
*1151 FILLER_0_2_321
*1152 FILLER_0_2_333
*1153 FILLER_0_2_345
*1154 FILLER_0_2_41
*1155 FILLER_0_2_53
*1156 FILLER_0_2_65
*1157 FILLER_0_2_77
*1158 FILLER_0_2_83
*1159 FILLER_0_2_85
*1160 FILLER_0_2_97
*1161 FILLER_0_30_111
*1162 FILLER_0_30_115
*1163 FILLER_0_30_123
*1164 FILLER_0_30_135
*1165 FILLER_0_30_139
*1166 FILLER_0_30_141
*1167 FILLER_0_30_147
*1168 FILLER_0_30_15
*1169 FILLER_0_30_154
*1170 FILLER_0_30_166
*1171 FILLER_0_30_178
*1172 FILLER_0_30_189
*1173 FILLER_0_30_195
*1174 FILLER_0_30_197
*1175 FILLER_0_30_209
*1176 FILLER_0_30_213
*1177 FILLER_0_30_24
*1178 FILLER_0_30_251
*1179 FILLER_0_30_253
*1180 FILLER_0_30_265
*1181 FILLER_0_30_269
*1182 FILLER_0_30_284
*1183 FILLER_0_30_3
*1184 FILLER_0_30_302
*1185 FILLER_0_30_344
*1186 FILLER_0_30_350
*1187 FILLER_0_30_66
*1188 FILLER_0_30_79
*1189 FILLER_0_30_83
*1190 FILLER_0_30_85
*1191 FILLER_0_30_91
*1192 FILLER_0_30_99
*1193 FILLER_0_31_113
*1194 FILLER_0_31_125
*1195 FILLER_0_31_137
*1196 FILLER_0_31_146
*1197 FILLER_0_31_160
*1198 FILLER_0_31_169
*1199 FILLER_0_31_180
*1200 FILLER_0_31_192
*1201 FILLER_0_31_204
*1202 FILLER_0_31_208
*1203 FILLER_0_31_214
*1204 FILLER_0_31_249
*1205 FILLER_0_31_257
*1206 FILLER_0_31_265
*1207 FILLER_0_31_274
*1208 FILLER_0_31_288
*1209 FILLER_0_31_296
*1210 FILLER_0_31_3
*1211 FILLER_0_31_319
*1212 FILLER_0_31_335
*1213 FILLER_0_31_337
*1214 FILLER_0_31_36
*1215 FILLER_0_31_48
*1216 FILLER_0_31_55
*1217 FILLER_0_31_93
*1218 FILLER_0_31_97
*1219 FILLER_0_32_112
*1220 FILLER_0_32_124
*1221 FILLER_0_32_135
*1222 FILLER_0_32_139
*1223 FILLER_0_32_15
*1224 FILLER_0_32_177
*1225 FILLER_0_32_189
*1226 FILLER_0_32_195
*1227 FILLER_0_32_237
*1228 FILLER_0_32_260
*1229 FILLER_0_32_268
*1230 FILLER_0_32_27
*1231 FILLER_0_32_285
*1232 FILLER_0_32_29
*1233 FILLER_0_32_297
*1234 FILLER_0_32_3
*1235 FILLER_0_32_316
*1236 FILLER_0_32_320
*1237 FILLER_0_32_342
*1238 FILLER_0_32_350
*1239 FILLER_0_32_41
*1240 FILLER_0_32_79
*1241 FILLER_0_32_83
*1242 FILLER_0_32_85
*1243 FILLER_0_33_111
*1244 FILLER_0_33_141
*1245 FILLER_0_33_15
*1246 FILLER_0_33_163
*1247 FILLER_0_33_167
*1248 FILLER_0_33_169
*1249 FILLER_0_33_181
*1250 FILLER_0_33_193
*1251 FILLER_0_33_205
*1252 FILLER_0_33_239
*1253 FILLER_0_33_251
*1254 FILLER_0_33_27
*1255 FILLER_0_33_270
*1256 FILLER_0_33_278
*1257 FILLER_0_33_281
*1258 FILLER_0_33_289
*1259 FILLER_0_33_3
*1260 FILLER_0_33_311
*1261 FILLER_0_33_319
*1262 FILLER_0_33_330
*1263 FILLER_0_33_337
*1264 FILLER_0_33_349
*1265 FILLER_0_33_39
*1266 FILLER_0_33_51
*1267 FILLER_0_33_55
*1268 FILLER_0_33_57
*1269 FILLER_0_33_65
*1270 FILLER_0_33_74
*1271 FILLER_0_33_86
*1272 FILLER_0_34_111
*1273 FILLER_0_34_123
*1274 FILLER_0_34_135
*1275 FILLER_0_34_139
*1276 FILLER_0_34_141
*1277 FILLER_0_34_15
*1278 FILLER_0_34_153
*1279 FILLER_0_34_161
*1280 FILLER_0_34_176
*1281 FILLER_0_34_188
*1282 FILLER_0_34_197
*1283 FILLER_0_34_202
*1284 FILLER_0_34_241
*1285 FILLER_0_34_249
*1286 FILLER_0_34_253
*1287 FILLER_0_34_261
*1288 FILLER_0_34_269
*1289 FILLER_0_34_27
*1290 FILLER_0_34_281
*1291 FILLER_0_34_29
*1292 FILLER_0_34_293
*1293 FILLER_0_34_3
*1294 FILLER_0_34_301
*1295 FILLER_0_34_305
*1296 FILLER_0_34_309
*1297 FILLER_0_34_324
*1298 FILLER_0_34_345
*1299 FILLER_0_34_41
*1300 FILLER_0_34_53
*1301 FILLER_0_34_65
*1302 FILLER_0_34_73
*1303 FILLER_0_34_81
*1304 FILLER_0_34_92
*1305 FILLER_0_35_103
*1306 FILLER_0_35_111
*1307 FILLER_0_35_113
*1308 FILLER_0_35_125
*1309 FILLER_0_35_137
*1310 FILLER_0_35_143
*1311 FILLER_0_35_15
*1312 FILLER_0_35_156
*1313 FILLER_0_35_169
*1314 FILLER_0_35_173
*1315 FILLER_0_35_207
*1316 FILLER_0_35_229
*1317 FILLER_0_35_245
*1318 FILLER_0_35_264
*1319 FILLER_0_35_27
*1320 FILLER_0_35_279
*1321 FILLER_0_35_288
*1322 FILLER_0_35_296
*1323 FILLER_0_35_3
*1324 FILLER_0_35_349
*1325 FILLER_0_35_39
*1326 FILLER_0_35_51
*1327 FILLER_0_35_55
*1328 FILLER_0_35_57
*1329 FILLER_0_35_69
*1330 FILLER_0_35_77
*1331 FILLER_0_35_92
*1332 FILLER_0_35_96
*1333 FILLER_0_36_122
*1334 FILLER_0_36_141
*1335 FILLER_0_36_149
*1336 FILLER_0_36_15
*1337 FILLER_0_36_163
*1338 FILLER_0_36_189
*1339 FILLER_0_36_195
*1340 FILLER_0_36_203
*1341 FILLER_0_36_215
*1342 FILLER_0_36_245
*1343 FILLER_0_36_251
*1344 FILLER_0_36_253
*1345 FILLER_0_36_265
*1346 FILLER_0_36_27
*1347 FILLER_0_36_29
*1348 FILLER_0_36_3
*1349 FILLER_0_36_300
*1350 FILLER_0_36_321
*1351 FILLER_0_36_350
*1352 FILLER_0_36_41
*1353 FILLER_0_36_53
*1354 FILLER_0_36_65
*1355 FILLER_0_36_71
*1356 FILLER_0_36_97
*1357 FILLER_0_37_113
*1358 FILLER_0_37_165
*1359 FILLER_0_37_169
*1360 FILLER_0_37_177
*1361 FILLER_0_37_215
*1362 FILLER_0_37_223
*1363 FILLER_0_37_23
*1364 FILLER_0_37_261
*1365 FILLER_0_37_277
*1366 FILLER_0_37_28
*1367 FILLER_0_37_293
*1368 FILLER_0_37_3
*1369 FILLER_0_37_305
*1370 FILLER_0_37_337
*1371 FILLER_0_37_350
*1372 FILLER_0_37_36
*1373 FILLER_0_37_44
*1374 FILLER_0_37_52
*1375 FILLER_0_37_61
*1376 FILLER_0_37_68
*1377 FILLER_0_37_80
*1378 FILLER_0_38_111
*1379 FILLER_0_38_113
*1380 FILLER_0_38_125
*1381 FILLER_0_38_141
*1382 FILLER_0_38_149
*1383 FILLER_0_38_15
*1384 FILLER_0_38_163
*1385 FILLER_0_38_167
*1386 FILLER_0_38_169
*1387 FILLER_0_38_181
*1388 FILLER_0_38_193
*1389 FILLER_0_38_197
*1390 FILLER_0_38_209
*1391 FILLER_0_38_215
*1392 FILLER_0_38_222
*1393 FILLER_0_38_225
*1394 FILLER_0_38_250
*1395 FILLER_0_38_259
*1396 FILLER_0_38_27
*1397 FILLER_0_38_274
*1398 FILLER_0_38_278
*1399 FILLER_0_38_29
*1400 FILLER_0_38_3
*1401 FILLER_0_38_302
*1402 FILLER_0_38_312
*1403 FILLER_0_38_327
*1404 FILLER_0_38_335
*1405 FILLER_0_38_349
*1406 FILLER_0_38_41
*1407 FILLER_0_38_53
*1408 FILLER_0_38_57
*1409 FILLER_0_38_69
*1410 FILLER_0_38_85
*1411 FILLER_0_3_105
*1412 FILLER_0_3_111
*1413 FILLER_0_3_113
*1414 FILLER_0_3_125
*1415 FILLER_0_3_137
*1416 FILLER_0_3_149
*1417 FILLER_0_3_15
*1418 FILLER_0_3_161
*1419 FILLER_0_3_167
*1420 FILLER_0_3_169
*1421 FILLER_0_3_181
*1422 FILLER_0_3_193
*1423 FILLER_0_3_205
*1424 FILLER_0_3_217
*1425 FILLER_0_3_223
*1426 FILLER_0_3_225
*1427 FILLER_0_3_237
*1428 FILLER_0_3_249
*1429 FILLER_0_3_261
*1430 FILLER_0_3_27
*1431 FILLER_0_3_273
*1432 FILLER_0_3_279
*1433 FILLER_0_3_281
*1434 FILLER_0_3_293
*1435 FILLER_0_3_3
*1436 FILLER_0_3_305
*1437 FILLER_0_3_317
*1438 FILLER_0_3_329
*1439 FILLER_0_3_335
*1440 FILLER_0_3_337
*1441 FILLER_0_3_349
*1442 FILLER_0_3_39
*1443 FILLER_0_3_51
*1444 FILLER_0_3_55
*1445 FILLER_0_3_57
*1446 FILLER_0_3_69
*1447 FILLER_0_3_81
*1448 FILLER_0_3_93
*1449 FILLER_0_4_109
*1450 FILLER_0_4_121
*1451 FILLER_0_4_133
*1452 FILLER_0_4_139
*1453 FILLER_0_4_141
*1454 FILLER_0_4_15
*1455 FILLER_0_4_153
*1456 FILLER_0_4_165
*1457 FILLER_0_4_177
*1458 FILLER_0_4_189
*1459 FILLER_0_4_195
*1460 FILLER_0_4_197
*1461 FILLER_0_4_209
*1462 FILLER_0_4_221
*1463 FILLER_0_4_233
*1464 FILLER_0_4_245
*1465 FILLER_0_4_251
*1466 FILLER_0_4_253
*1467 FILLER_0_4_265
*1468 FILLER_0_4_27
*1469 FILLER_0_4_277
*1470 FILLER_0_4_289
*1471 FILLER_0_4_29
*1472 FILLER_0_4_3
*1473 FILLER_0_4_301
*1474 FILLER_0_4_307
*1475 FILLER_0_4_309
*1476 FILLER_0_4_321
*1477 FILLER_0_4_333
*1478 FILLER_0_4_345
*1479 FILLER_0_4_41
*1480 FILLER_0_4_53
*1481 FILLER_0_4_65
*1482 FILLER_0_4_77
*1483 FILLER_0_4_83
*1484 FILLER_0_4_85
*1485 FILLER_0_4_97
*1486 FILLER_0_5_105
*1487 FILLER_0_5_111
*1488 FILLER_0_5_113
*1489 FILLER_0_5_125
*1490 FILLER_0_5_137
*1491 FILLER_0_5_149
*1492 FILLER_0_5_15
*1493 FILLER_0_5_161
*1494 FILLER_0_5_167
*1495 FILLER_0_5_169
*1496 FILLER_0_5_181
*1497 FILLER_0_5_193
*1498 FILLER_0_5_205
*1499 FILLER_0_5_217
*1500 FILLER_0_5_223
*1501 FILLER_0_5_225
*1502 FILLER_0_5_237
*1503 FILLER_0_5_249
*1504 FILLER_0_5_261
*1505 FILLER_0_5_27
*1506 FILLER_0_5_273
*1507 FILLER_0_5_279
*1508 FILLER_0_5_281
*1509 FILLER_0_5_293
*1510 FILLER_0_5_3
*1511 FILLER_0_5_305
*1512 FILLER_0_5_317
*1513 FILLER_0_5_329
*1514 FILLER_0_5_335
*1515 FILLER_0_5_337
*1516 FILLER_0_5_349
*1517 FILLER_0_5_39
*1518 FILLER_0_5_51
*1519 FILLER_0_5_55
*1520 FILLER_0_5_57
*1521 FILLER_0_5_69
*1522 FILLER_0_5_81
*1523 FILLER_0_5_93
*1524 FILLER_0_6_109
*1525 FILLER_0_6_121
*1526 FILLER_0_6_133
*1527 FILLER_0_6_139
*1528 FILLER_0_6_141
*1529 FILLER_0_6_15
*1530 FILLER_0_6_153
*1531 FILLER_0_6_165
*1532 FILLER_0_6_177
*1533 FILLER_0_6_189
*1534 FILLER_0_6_195
*1535 FILLER_0_6_197
*1536 FILLER_0_6_209
*1537 FILLER_0_6_221
*1538 FILLER_0_6_233
*1539 FILLER_0_6_245
*1540 FILLER_0_6_251
*1541 FILLER_0_6_253
*1542 FILLER_0_6_265
*1543 FILLER_0_6_27