*SPEF "ieee 1481-1999"
*DESIGN "tt_um_LEOGLM_hamming_code_top"
*DATE "11:11:11 Fri 11 11, 1111"
*VENDOR "OpenRCX"
*PROGRAM "Parallel Extraction"
*VERSION "1.0"
*DESIGN_FLOW "NAME_SCOPE LOCAL" "PIN_CAP NONE"
*DIVIDER /
*DELIMITER :
*BUS_DELIMITER []
*T_UNIT 1 NS
*C_UNIT 1 PF
*R_UNIT 1 OHM
*L_UNIT 1 HENRY

*NAME_MAP
*3 clk
*4 ena
*5 rst_n
*6 ui_in[0]
*7 ui_in[1]
*8 ui_in[2]
*9 ui_in[3]
*10 ui_in[4]
*11 ui_in[5]
*12 ui_in[6]
*13 ui_in[7]
*14 uio_in[0]
*15 uio_in[1]
*16 uio_in[2]
*17 uio_in[3]
*18 uio_in[4]
*19 uio_in[5]
*20 uio_in[6]
*21 uio_in[7]
*22 uio_oe[0]
*23 uio_oe[1]
*24 uio_oe[2]
*25 uio_oe[3]
*26 uio_oe[4]
*27 uio_oe[5]
*28 uio_oe[6]
*29 uio_oe[7]
*30 uio_out[0]
*31 uio_out[1]
*32 uio_out[2]
*33 net30
*34 net31
*35 net32
*36 net33
*37 net34
*38 uo_out[0]
*39 uo_out[1]
*40 uo_out[2]
*41 uo_out[3]
*42 uo_out[4]
*43 uo_out[5]
*44 uo_out[6]
*45 uo_out[7]
*46 A1\.F1\.coded_msg\[0\]
*47 A1\.F1\.coded_msg\[10\]
*48 A1\.F1\.coded_msg\[11\]
*49 A1\.F1\.coded_msg\[12\]
*50 A1\.F1\.coded_msg\[13\]
*51 A1\.F1\.coded_msg\[14\]
*52 A1\.F1\.coded_msg\[1\]
*53 A1\.F1\.coded_msg\[2\]
*54 A1\.F1\.coded_msg\[3\]
*55 A1\.F1\.coded_msg\[4\]
*56 A1\.F1\.coded_msg\[5\]
*57 A1\.F1\.coded_msg\[6\]
*58 A1\.F1\.coded_msg\[7\]
*59 A1\.F1\.coded_msg\[8\]
*60 A1\.F1\.coded_msg\[9\]
*61 A1\.F1\.msg_in_coder\[0\]
*62 A1\.F1\.msg_in_coder\[10\]
*63 A1\.F1\.msg_in_coder\[1\]
*64 A1\.F1\.msg_in_coder\[2\]
*65 A1\.F1\.msg_in_coder\[3\]
*66 A1\.F1\.msg_in_coder\[4\]
*67 A1\.F1\.msg_in_coder\[5\]
*68 A1\.F1\.msg_in_coder\[6\]
*69 A1\.F1\.msg_in_coder\[7\]
*70 A1\.F1\.msg_in_coder\[8\]
*71 A1\.F1\.msg_in_coder\[9\]
*72 A1\.U1\.enable_tx
*73 A1\.U1\.msg\[10\]
*74 A1\.U1\.msg\[11\]
*75 A1\.U1\.msg\[12\]
*76 A1\.U1\.msg\[13\]
*77 A1\.U1\.msg\[14\]
*78 A1\.U1\.msg\[15\]
*79 A1\.U1\.msg\[16\]
*80 A1\.U1\.msg\[1\]
*81 A1\.U1\.msg\[2\]
*82 A1\.U1\.msg\[3\]
*83 A1\.U1\.msg\[4\]
*84 A1\.U1\.msg\[5\]
*85 A1\.U1\.msg\[6\]
*86 A1\.U1\.msg\[7\]
*87 A1\.U1\.msg\[8\]
*88 A1\.U1\.msg\[9\]
*89 B1\.F1\.msg\[0\]
*90 B1\.F1\.msg\[10\]
*91 B1\.F1\.msg\[12\]
*92 B1\.F1\.msg\[1\]
*93 B1\.F1\.msg\[2\]
*94 B1\.F1\.msg\[3\]
*95 B1\.F1\.msg\[4\]
*96 B1\.F1\.msg\[5\]
*97 B1\.F1\.msg\[6\]
*98 B1\.F1\.msg\[8\]
*99 B1\.F1\.msg\[9\]
*100 B1\.F1\.msg_in_decoder\[0\]
*101 B1\.F1\.msg_in_decoder\[10\]
*102 B1\.F1\.msg_in_decoder\[11\]
*103 B1\.F1\.msg_in_decoder\[12\]
*104 B1\.F1\.msg_in_decoder\[13\]
*105 B1\.F1\.msg_in_decoder\[14\]
*106 B1\.F1\.msg_in_decoder\[1\]
*107 B1\.F1\.msg_in_decoder\[2\]
*108 B1\.F1\.msg_in_decoder\[3\]
*109 B1\.F1\.msg_in_decoder\[4\]
*110 B1\.F1\.msg_in_decoder\[5\]
*111 B1\.F1\.msg_in_decoder\[6\]
*112 B1\.F1\.msg_in_decoder\[7\]
*113 B1\.F1\.msg_in_decoder\[8\]
*114 B1\.F1\.msg_in_decoder\[9\]
*115 B1\.U1\.counter\[0\]
*116 B1\.U1\.counter\[1\]
*117 B1\.U1\.counter\[2\]
*118 B1\.U1\.counter\[3\]
*119 B1\.U1\.counter\[4\]
*120 B1\.U1\.enable
*121 B1\.U1\.msg\[10\]
*122 B1\.U1\.msg\[11\]
*123 B1\.U1\.msg\[12\]
*124 B1\.U1\.msg\[13\]
*125 B1\.U1\.msg\[14\]
*126 B1\.U1\.msg\[15\]
*127 B1\.U1\.msg\[1\]
*128 B1\.U1\.msg\[2\]
*129 B1\.U1\.msg\[3\]
*130 B1\.U1\.msg\[4\]
*131 B1\.U1\.msg\[5\]
*132 B1\.U1\.msg\[6\]
*133 B1\.U1\.msg\[7\]
*134 B1\.U1\.msg\[8\]
*135 B1\.U1\.msg\[9\]
*136 B1\.U1\.msg_in_rx
*137 _000_
*138 _001_
*139 _002_
*140 _003_
*141 _004_
*142 _005_
*143 _006_
*144 _007_
*145 _008_
*146 _009_
*147 _010_
*148 _011_
*149 _012_
*150 _013_
*151 _014_
*152 _015_
*153 _016_
*154 _017_
*155 _018_
*156 _019_
*157 _020_
*158 _021_
*159 _022_
*160 _023_
*161 _024_
*162 _025_
*163 _026_
*164 _027_
*165 _028_
*166 _029_
*167 _030_
*168 _031_
*169 _032_
*170 _033_
*171 _034_
*172 _035_
*173 _036_
*174 _037_
*175 _038_
*176 _039_
*177 _040_
*178 _041_
*179 _042_
*180 _043_
*181 _044_
*182 _045_
*183 _046_
*184 _047_
*185 _048_
*186 _049_
*187 _050_
*188 _051_
*189 _052_
*190 _053_
*191 _054_
*192 _055_
*193 _056_
*194 _057_
*195 _058_
*196 _059_
*197 _060_
*198 _061_
*199 _062_
*200 _063_
*201 _064_
*202 _065_
*203 _066_
*204 _067_
*205 _068_
*206 _069_
*207 _070_
*208 _071_
*209 _072_
*210 _073_
*211 _074_
*212 _075_
*213 _076_
*214 _077_
*215 _078_
*216 _079_
*217 _080_
*218 _081_
*219 _082_
*220 _083_
*221 _084_
*222 _085_
*223 _086_
*224 _087_
*225 _088_
*226 _089_
*227 _090_
*228 _091_
*229 _092_
*230 _093_
*231 _094_
*232 _095_
*233 _096_
*234 _097_
*235 _098_
*236 _099_
*237 _100_
*238 _101_
*239 _102_
*240 _103_
*241 _104_
*242 _105_
*243 _106_
*244 _107_
*245 _108_
*246 _109_
*247 _110_
*248 _111_
*249 _112_
*250 _113_
*251 _114_
*252 _115_
*253 _116_
*254 _117_
*255 _118_
*256 _119_
*257 _120_
*258 _121_
*259 _122_
*260 _123_
*261 _124_
*262 _125_
*263 _126_
*264 _127_
*265 _128_
*266 _129_
*267 _130_
*268 _131_
*269 _132_
*270 _133_
*271 _134_
*272 _135_
*273 _136_
*274 _137_
*275 _138_
*276 _139_
*277 _140_
*278 _141_
*279 _142_
*280 _143_
*281 _144_
*282 _145_
*283 _146_
*284 _147_
*285 _148_
*286 _149_
*287 _150_
*288 _151_
*289 _152_
*290 _153_
*291 _154_
*292 _155_
*293 _156_
*294 _157_
*295 _158_
*296 _159_
*297 _160_
*298 _161_
*299 _162_
*300 _163_
*301 _164_
*302 _165_
*303 _166_
*304 _167_
*305 _168_
*306 _169_
*307 _170_
*308 _171_
*309 _172_
*310 _173_
*311 _174_
*312 _175_
*313 _176_
*314 _177_
*315 _178_
*316 _179_
*317 _180_
*318 _181_
*319 _182_
*320 _183_
*321 _184_
*322 _185_
*323 _186_
*324 _187_
*325 _188_
*326 _189_
*327 _190_
*328 _191_
*329 _192_
*330 _193_
*331 _194_
*332 _195_
*333 _196_
*334 _197_
*335 _198_
*336 _199_
*337 _200_
*338 _201_
*339 _202_
*340 _203_
*341 _204_
*342 _205_
*343 _206_
*344 _207_
*345 _208_
*346 _209_
*347 _210_
*348 _211_
*349 _212_
*350 _213_
*351 _214_
*352 _215_
*353 _216_
*354 _217_
*355 _218_
*356 _219_
*357 _220_
*358 _221_
*359 _222_
*360 clknet_0_clk
*361 clknet_2_0__leaf_clk
*362 clknet_2_1__leaf_clk
*363 clknet_2_2__leaf_clk
*364 clknet_2_3__leaf_clk
*365 net1
*366 net10
*367 net11
*368 net12
*369 net13
*370 net14
*371 net15
*372 net16
*373 net17
*374 net18
*375 net19
*376 net2
*377 net20
*378 net21
*379 net22
*380 net23
*381 net24
*382 net25
*383 net26
*384 net27
*385 net28
*386 net29
*387 net3
*388 net35
*389 net36
*390 net37
*391 net38
*392 net39
*393 net4
*394 net40
*395 net41
*396 net42
*397 net43
*398 net44
*399 net45
*400 net46
*401 net47
*402 net48
*403 net49
*404 net5
*405 net50
*406 net51
*407 net52
*408 net53
*409 net54
*410 net55
*411 net6
*412 net7
*413 net8
*414 net9
*415 state
*416 FILLER_0_0_109
*417 FILLER_0_0_113
*418 FILLER_0_0_125
*419 FILLER_0_0_137
*420 FILLER_0_0_141
*421 FILLER_0_0_15
*422 FILLER_0_0_153
*423 FILLER_0_0_165
*424 FILLER_0_0_169
*425 FILLER_0_0_181
*426 FILLER_0_0_193
*427 FILLER_0_0_197
*428 FILLER_0_0_209
*429 FILLER_0_0_221
*430 FILLER_0_0_225
*431 FILLER_0_0_237
*432 FILLER_0_0_249
*433 FILLER_0_0_253
*434 FILLER_0_0_265
*435 FILLER_0_0_27
*436 FILLER_0_0_277
*437 FILLER_0_0_281
*438 FILLER_0_0_29
*439 FILLER_0_0_293
*440 FILLER_0_0_3
*441 FILLER_0_0_305
*442 FILLER_0_0_309
*443 FILLER_0_0_321
*444 FILLER_0_0_333
*445 FILLER_0_0_337
*446 FILLER_0_0_349
*447 FILLER_0_0_41
*448 FILLER_0_0_53
*449 FILLER_0_0_57
*450 FILLER_0_0_69
*451 FILLER_0_0_81
*452 FILLER_0_0_85
*453 FILLER_0_0_97
*454 FILLER_0_10_109
*455 FILLER_0_10_121
*456 FILLER_0_10_133
*457 FILLER_0_10_139
*458 FILLER_0_10_141
*459 FILLER_0_10_15
*460 FILLER_0_10_153
*461 FILLER_0_10_165
*462 FILLER_0_10_177
*463 FILLER_0_10_189
*464 FILLER_0_10_195
*465 FILLER_0_10_197
*466 FILLER_0_10_209
*467 FILLER_0_10_221
*468 FILLER_0_10_233
*469 FILLER_0_10_245
*470 FILLER_0_10_251
*471 FILLER_0_10_253
*472 FILLER_0_10_265
*473 FILLER_0_10_27
*474 FILLER_0_10_277
*475 FILLER_0_10_289
*476 FILLER_0_10_29
*477 FILLER_0_10_3
*478 FILLER_0_10_301
*479 FILLER_0_10_307
*480 FILLER_0_10_309
*481 FILLER_0_10_321
*482 FILLER_0_10_333
*483 FILLER_0_10_345
*484 FILLER_0_10_41
*485 FILLER_0_10_53
*486 FILLER_0_10_65
*487 FILLER_0_10_77
*488 FILLER_0_10_83
*489 FILLER_0_10_85
*490 FILLER_0_10_97
*491 FILLER_0_11_105
*492 FILLER_0_11_111
*493 FILLER_0_11_113
*494 FILLER_0_11_125
*495 FILLER_0_11_137
*496 FILLER_0_11_149
*497 FILLER_0_11_15
*498 FILLER_0_11_161
*499 FILLER_0_11_167
*500 FILLER_0_11_169
*501 FILLER_0_11_181
*502 FILLER_0_11_193
*503 FILLER_0_11_205
*504 FILLER_0_11_217
*505 FILLER_0_11_223
*506 FILLER_0_11_225
*507 FILLER_0_11_237
*508 FILLER_0_11_249
*509 FILLER_0_11_261
*510 FILLER_0_11_27
*511 FILLER_0_11_273
*512 FILLER_0_11_279
*513 FILLER_0_11_281
*514 FILLER_0_11_293
*515 FILLER_0_11_3
*516 FILLER_0_11_305
*517 FILLER_0_11_317
*518 FILLER_0_11_329
*519 FILLER_0_11_335
*520 FILLER_0_11_337
*521 FILLER_0_11_349
*522 FILLER_0_11_39
*523 FILLER_0_11_51
*524 FILLER_0_11_55
*525 FILLER_0_11_57
*526 FILLER_0_11_69
*527 FILLER_0_11_81
*528 FILLER_0_11_93
*529 FILLER_0_12_109
*530 FILLER_0_12_121
*531 FILLER_0_12_133
*532 FILLER_0_12_139
*533 FILLER_0_12_141
*534 FILLER_0_12_15
*535 FILLER_0_12_153
*536 FILLER_0_12_165
*537 FILLER_0_12_177
*538 FILLER_0_12_189
*539 FILLER_0_12_195
*540 FILLER_0_12_197
*541 FILLER_0_12_209
*542 FILLER_0_12_221
*543 FILLER_0_12_233
*544 FILLER_0_12_245
*545 FILLER_0_12_251
*546 FILLER_0_12_253
*547 FILLER_0_12_265
*548 FILLER_0_12_27
*549 FILLER_0_12_277
*550 FILLER_0_12_289
*551 FILLER_0_12_29
*552 FILLER_0_12_3
*553 FILLER_0_12_301
*554 FILLER_0_12_307
*555 FILLER_0_12_309
*556 FILLER_0_12_321
*557 FILLER_0_12_333
*558 FILLER_0_12_345
*559 FILLER_0_12_41
*560 FILLER_0_12_53
*561 FILLER_0_12_65
*562 FILLER_0_12_77
*563 FILLER_0_12_83
*564 FILLER_0_12_85
*565 FILLER_0_12_97
*566 FILLER_0_13_105
*567 FILLER_0_13_111
*568 FILLER_0_13_113
*569 FILLER_0_13_125
*570 FILLER_0_13_137
*571 FILLER_0_13_149
*572 FILLER_0_13_15
*573 FILLER_0_13_161
*574 FILLER_0_13_167
*575 FILLER_0_13_169
*576 FILLER_0_13_181
*577 FILLER_0_13_193
*578 FILLER_0_13_205
*579 FILLER_0_13_217
*580 FILLER_0_13_223
*581 FILLER_0_13_225
*582 FILLER_0_13_237
*583 FILLER_0_13_249
*584 FILLER_0_13_261
*585 FILLER_0_13_27
*586 FILLER_0_13_273
*587 FILLER_0_13_279
*588 FILLER_0_13_281
*589 FILLER_0_13_293
*590 FILLER_0_13_3
*591 FILLER_0_13_305
*592 FILLER_0_13_317
*593 FILLER_0_13_329
*594 FILLER_0_13_335
*595 FILLER_0_13_337
*596 FILLER_0_13_349
*597 FILLER_0_13_39
*598 FILLER_0_13_51
*599 FILLER_0_13_55
*600 FILLER_0_13_57
*601 FILLER_0_13_69
*602 FILLER_0_13_81
*603 FILLER_0_13_93
*604 FILLER_0_14_109
*605 FILLER_0_14_121
*606 FILLER_0_14_133
*607 FILLER_0_14_139
*608 FILLER_0_14_141
*609 FILLER_0_14_15
*610 FILLER_0_14_153
*611 FILLER_0_14_165
*612 FILLER_0_14_177
*613 FILLER_0_14_189
*614 FILLER_0_14_195
*615 FILLER_0_14_197
*616 FILLER_0_14_209
*617 FILLER_0_14_221
*618 FILLER_0_14_233
*619 FILLER_0_14_245
*620 FILLER_0_14_251
*621 FILLER_0_14_253
*622 FILLER_0_14_265
*623 FILLER_0_14_27
*624 FILLER_0_14_277
*625 FILLER_0_14_289
*626 FILLER_0_14_29
*627 FILLER_0_14_3
*628 FILLER_0_14_301
*629 FILLER_0_14_307
*630 FILLER_0_14_309
*631 FILLER_0_14_321
*632 FILLER_0_14_333
*633 FILLER_0_14_345
*634 FILLER_0_14_41
*635 FILLER_0_14_53
*636 FILLER_0_14_65
*637 FILLER_0_14_77
*638 FILLER_0_14_83
*639 FILLER_0_14_85
*640 FILLER_0_14_97
*641 FILLER_0_15_105
*642 FILLER_0_15_111
*643 FILLER_0_15_113
*644 FILLER_0_15_125
*645 FILLER_0_15_137
*646 FILLER_0_15_149
*647 FILLER_0_15_15
*648 FILLER_0_15_161
*649 FILLER_0_15_167
*650 FILLER_0_15_169
*651 FILLER_0_15_181
*652 FILLER_0_15_193
*653 FILLER_0_15_205
*654 FILLER_0_15_217
*655 FILLER_0_15_223
*656 FILLER_0_15_225
*657 FILLER_0_15_237
*658 FILLER_0_15_249
*659 FILLER_0_15_261
*660 FILLER_0_15_27
*661 FILLER_0_15_273
*662 FILLER_0_15_279
*663 FILLER_0_15_281
*664 FILLER_0_15_293
*665 FILLER_0_15_3
*666 FILLER_0_15_305
*667 FILLER_0_15_317
*668 FILLER_0_15_329
*669 FILLER_0_15_335
*670 FILLER_0_15_337
*671 FILLER_0_15_349
*672 FILLER_0_15_39
*673 FILLER_0_15_51
*674 FILLER_0_15_55
*675 FILLER_0_15_57
*676 FILLER_0_15_69
*677 FILLER_0_15_81
*678 FILLER_0_15_93
*679 FILLER_0_16_103
*680 FILLER_0_16_115
*681 FILLER_0_16_127
*682 FILLER_0_16_139
*683 FILLER_0_16_141
*684 FILLER_0_16_15
*685 FILLER_0_16_153
*686 FILLER_0_16_165
*687 FILLER_0_16_177
*688 FILLER_0_16_189
*689 FILLER_0_16_195
*690 FILLER_0_16_197
*691 FILLER_0_16_209
*692 FILLER_0_16_221
*693 FILLER_0_16_233
*694 FILLER_0_16_245
*695 FILLER_0_16_251
*696 FILLER_0_16_253
*697 FILLER_0_16_265
*698 FILLER_0_16_27
*699 FILLER_0_16_277
*700 FILLER_0_16_289
*701 FILLER_0_16_29
*702 FILLER_0_16_3
*703 FILLER_0_16_301
*704 FILLER_0_16_307
*705 FILLER_0_16_309
*706 FILLER_0_16_321
*707 FILLER_0_16_333
*708 FILLER_0_16_345
*709 FILLER_0_16_41
*710 FILLER_0_16_53
*711 FILLER_0_16_65
*712 FILLER_0_16_77
*713 FILLER_0_16_83
*714 FILLER_0_16_91
*715 FILLER_0_17_113
*716 FILLER_0_17_15
*717 FILLER_0_17_163
*718 FILLER_0_17_167
*719 FILLER_0_17_169
*720 FILLER_0_17_181
*721 FILLER_0_17_193
*722 FILLER_0_17_205
*723 FILLER_0_17_217
*724 FILLER_0_17_223
*725 FILLER_0_17_225
*726 FILLER_0_17_237
*727 FILLER_0_17_249
*728 FILLER_0_17_261
*729 FILLER_0_17_27
*730 FILLER_0_17_273
*731 FILLER_0_17_279
*732 FILLER_0_17_281
*733 FILLER_0_17_293
*734 FILLER_0_17_3
*735 FILLER_0_17_305
*736 FILLER_0_17_317
*737 FILLER_0_17_329
*738 FILLER_0_17_335
*739 FILLER_0_17_337
*740 FILLER_0_17_349
*741 FILLER_0_17_52
*742 FILLER_0_17_57
*743 FILLER_0_17_65
*744 FILLER_0_17_72
*745 FILLER_0_17_78
*746 FILLER_0_17_99
*747 FILLER_0_18_137
*748 FILLER_0_18_141
*749 FILLER_0_18_15
*750 FILLER_0_18_164
*751 FILLER_0_18_176
*752 FILLER_0_18_188
*753 FILLER_0_18_197
*754 FILLER_0_18_209
*755 FILLER_0_18_221
*756 FILLER_0_18_233
*757 FILLER_0_18_245
*758 FILLER_0_18_251
*759 FILLER_0_18_253
*760 FILLER_0_18_265
*761 FILLER_0_18_27
*762 FILLER_0_18_277
*763 FILLER_0_18_289
*764 FILLER_0_18_29
*765 FILLER_0_18_3
*766 FILLER_0_18_301
*767 FILLER_0_18_307
*768 FILLER_0_18_309
*769 FILLER_0_18_321
*770 FILLER_0_18_333
*771 FILLER_0_18_345
*772 FILLER_0_18_35
*773 FILLER_0_18_39
*774 FILLER_0_19_109
*775 FILLER_0_19_121
*776 FILLER_0_19_15
*777 FILLER_0_19_152
*778 FILLER_0_19_164
*779 FILLER_0_19_169
*780 FILLER_0_19_181
*781 FILLER_0_19_193
*782 FILLER_0_19_205
*783 FILLER_0_19_217
*784 FILLER_0_19_223
*785 FILLER_0_19_225
*786 FILLER_0_19_237
*787 FILLER_0_19_249
*788 FILLER_0_19_261
*789 FILLER_0_19_273
*790 FILLER_0_19_279
*791 FILLER_0_19_281
*792 FILLER_0_19_293
*793 FILLER_0_19_3
*794 FILLER_0_19_305
*795 FILLER_0_19_317
*796 FILLER_0_19_329
*797 FILLER_0_19_335
*798 FILLER_0_19_337
*799 FILLER_0_19_349
*800 FILLER_0_19_44
*801 FILLER_0_19_54
*802 FILLER_0_19_74
*803 FILLER_0_19_86
*804 FILLER_0_19_91
*805 FILLER_0_19_99
*806 FILLER_0_1_105
*807 FILLER_0_1_111
*808 FILLER_0_1_113
*809 FILLER_0_1_125
*810 FILLER_0_1_137
*811 FILLER_0_1_149
*812 FILLER_0_1_15
*813 FILLER_0_1_161
*814 FILLER_0_1_167
*815 FILLER_0_1_169
*816 FILLER_0_1_181
*817 FILLER_0_1_193
*818 FILLER_0_1_205
*819 FILLER_0_1_217
*820 FILLER_0_1_223
*821 FILLER_0_1_225
*822 FILLER_0_1_237
*823 FILLER_0_1_249
*824 FILLER_0_1_261
*825 FILLER_0_1_27
*826 FILLER_0_1_273
*827 FILLER_0_1_279
*828 FILLER_0_1_281
*829 FILLER_0_1_293
*830 FILLER_0_1_3
*831 FILLER_0_1_305
*832 FILLER_0_1_317
*833 FILLER_0_1_329
*834 FILLER_0_1_335
*835 FILLER_0_1_337
*836 FILLER_0_1_349
*837 FILLER_0_1_39
*838 FILLER_0_1_51
*839 FILLER_0_1_55
*840 FILLER_0_1_57
*841 FILLER_0_1_69
*842 FILLER_0_1_81
*843 FILLER_0_1_93
*844 FILLER_0_20_111
*845 FILLER_0_20_115
*846 FILLER_0_20_136
*847 FILLER_0_20_141
*848 FILLER_0_20_15
*849 FILLER_0_20_174
*850 FILLER_0_20_186
*851 FILLER_0_20_19
*852 FILLER_0_20_194
*853 FILLER_0_20_197
*854 FILLER_0_20_209
*855 FILLER_0_20_221
*856 FILLER_0_20_233
*857 FILLER_0_20_245
*858 FILLER_0_20_251
*859 FILLER_0_20_253
*860 FILLER_0_20_265
*861 FILLER_0_20_277
*862 FILLER_0_20_289
*863 FILLER_0_20_3
*864 FILLER_0_20_301
*865 FILLER_0_20_307
*866 FILLER_0_20_309
*867 FILLER_0_20_32
*868 FILLER_0_20_321
*869 FILLER_0_20_333
*870 FILLER_0_20_345
*871 FILLER_0_20_42
*872 FILLER_0_20_53
*873 FILLER_0_20_65
*874 FILLER_0_20_73
*875 FILLER_0_20_83
*876 FILLER_0_20_85
*877 FILLER_0_20_93
*878 FILLER_0_20_99
*879 FILLER_0_21_103
*880 FILLER_0_21_121
*881 FILLER_0_21_148
*882 FILLER_0_21_173
*883 FILLER_0_21_208
*884 FILLER_0_21_220
*885 FILLER_0_21_225
*886 FILLER_0_21_237
*887 FILLER_0_21_249
*888 FILLER_0_21_261
*889 FILLER_0_21_273
*890 FILLER_0_21_279
*891 FILLER_0_21_281
*892 FILLER_0_21_293
*893 FILLER_0_21_3
*894 FILLER_0_21_305
*895 FILLER_0_21_317
*896 FILLER_0_21_329
*897 FILLER_0_21_335
*898 FILLER_0_21_337
*899 FILLER_0_21_349
*900 FILLER_0_21_45
*901 FILLER_0_21_53
*902 FILLER_0_21_57
*903 FILLER_0_21_74
*904 FILLER_0_21_84
*905 FILLER_0_22_114
*906 FILLER_0_22_126
*907 FILLER_0_22_130
*908 FILLER_0_22_138
*909 FILLER_0_22_145
*910 FILLER_0_22_15
*911 FILLER_0_22_163
*912 FILLER_0_22_201
*913 FILLER_0_22_213
*914 FILLER_0_22_225
*915 FILLER_0_22_237
*916 FILLER_0_22_24
*917 FILLER_0_22_249
*918 FILLER_0_22_253
*919 FILLER_0_22_265
*920 FILLER_0_22_277
*921 FILLER_0_22_289
*922 FILLER_0_22_3
*923 FILLER_0_22_301
*924 FILLER_0_22_307
*925 FILLER_0_22_309
*926 FILLER_0_22_321
*927 FILLER_0_22_333
*928 FILLER_0_22_34
*929 FILLER_0_22_345
*930 FILLER_0_22_46
*931 FILLER_0_22_50
*932 FILLER_0_23_100
*933 FILLER_0_23_11
*934 FILLER_0_23_110
*935 FILLER_0_23_118
*936 FILLER_0_23_130
*937 FILLER_0_23_136
*938 FILLER_0_23_155
*939 FILLER_0_23_167
*940 FILLER_0_23_175
*941 FILLER_0_23_206
*942 FILLER_0_23_218
*943 FILLER_0_23_225
*944 FILLER_0_23_237
*945 FILLER_0_23_249
*946 FILLER_0_23_261
*947 FILLER_0_23_273
*948 FILLER_0_23_279
*949 FILLER_0_23_281
*950 FILLER_0_23_293
*951 FILLER_0_23_3
*952 FILLER_0_23_305
*953 FILLER_0_23_317
*954 FILLER_0_23_329
*955 FILLER_0_23_335
*956 FILLER_0_23_337
*957 FILLER_0_23_349
*958 FILLER_0_23_44
*959 FILLER_0_23_78
*960 FILLER_0_24_11
*961 FILLER_0_24_111
*962 FILLER_0_24_115
*963 FILLER_0_24_125
*964 FILLER_0_24_162
*965 FILLER_0_24_174
*966 FILLER_0_24_188
*967 FILLER_0_24_192
*968 FILLER_0_24_206
*969 FILLER_0_24_218
*970 FILLER_0_24_230
*971 FILLER_0_24_242
*972 FILLER_0_24_250
*973 FILLER_0_24_253
*974 FILLER_0_24_265
*975 FILLER_0_24_277
*976 FILLER_0_24_289
*977 FILLER_0_24_29
*978 FILLER_0_24_3
*979 FILLER_0_24_301
*980 FILLER_0_24_307
*981 FILLER_0_24_309
*982 FILLER_0_24_321
*983 FILLER_0_24_333
*984 FILLER_0_24_345
*985 FILLER_0_24_48
*986 FILLER_0_24_73
*987 FILLER_0_24_81
*988 FILLER_0_24_85
*989 FILLER_0_25_102
*990 FILLER_0_25_108
*991 FILLER_0_25_134
*992 FILLER_0_25_153
*993 FILLER_0_25_169
*994 FILLER_0_25_181
*995 FILLER_0_25_213
*996 FILLER_0_25_221
*997 FILLER_0_25_225
*998 FILLER_0_25_237
*999 FILLER_0_25_249
*1000 FILLER_0_25_261
*1001 FILLER_0_25_273
*1002 FILLER_0_25_279
*1003 FILLER_0_25_281
*1004 FILLER_0_25_293
*1005 FILLER_0_25_3
*1006 FILLER_0_25_305
*1007 FILLER_0_25_317
*1008 FILLER_0_25_329
*1009 FILLER_0_25_335
*1010 FILLER_0_25_337
*1011 FILLER_0_25_349
*1012 FILLER_0_25_36
*1013 FILLER_0_25_48
*1014 FILLER_0_25_57
*1015 FILLER_0_25_65
*1016 FILLER_0_25_77
*1017 FILLER_0_25_83
*1018 FILLER_0_25_93
*1019 FILLER_0_26_118
*1020 FILLER_0_26_130
*1021 FILLER_0_26_138
*1022 FILLER_0_26_15
*1023 FILLER_0_26_171
*1024 FILLER_0_26_184
*1025 FILLER_0_26_192
*1026 FILLER_0_26_218
*1027 FILLER_0_26_230
*1028 FILLER_0_26_238
*1029 FILLER_0_26_242
*1030 FILLER_0_26_250
*1031 FILLER_0_26_253
*1032 FILLER_0_26_27
*1033 FILLER_0_26_29
*1034 FILLER_0_26_296
*1035 FILLER_0_26_3
*1036 FILLER_0_26_309
*1037 FILLER_0_26_321
*1038 FILLER_0_26_333
*1039 FILLER_0_26_345
*1040 FILLER_0_26_40
*1041 FILLER_0_26_48
*1042 FILLER_0_26_83
*1043 FILLER_0_26_85
*1044 FILLER_0_27_102
*1045 FILLER_0_27_116
*1046 FILLER_0_27_131
*1047 FILLER_0_27_143
*1048 FILLER_0_27_149
*1049 FILLER_0_27_159
*1050 FILLER_0_27_210
*1051 FILLER_0_27_222
*1052 FILLER_0_27_274
*1053 FILLER_0_27_3
*1054 FILLER_0_27_321
*1055 FILLER_0_27_327
*1056 FILLER_0_27_340
*1057 FILLER_0_27_348
*1058 FILLER_0_27_45
*1059 FILLER_0_27_53
*1060 FILLER_0_27_63
*1061 FILLER_0_27_69
*1062 FILLER_0_27_96
*1063 FILLER_0_28_141
*1064 FILLER_0_28_15
*1065 FILLER_0_28_168
*1066 FILLER_0_28_181
*1067 FILLER_0_28_191
*1068 FILLER_0_28_195
*1069 FILLER_0_28_204
*1070 FILLER_0_28_21
*1071 FILLER_0_28_216
*1072 FILLER_0_28_273
*1073 FILLER_0_28_286
*1074 FILLER_0_28_29
*1075 FILLER_0_28_3
*1076 FILLER_0_28_305
*1077 FILLER_0_28_318
*1078 FILLER_0_28_322
*1079 FILLER_0_28_343
*1080 FILLER_0_28_40
*1081 FILLER_0_28_64
*1082 FILLER_0_28_76
*1083 FILLER_0_28_83
*1084 FILLER_0_28_85
*1085 FILLER_0_28_97
*1086 FILLER_0_29_105
*1087 FILLER_0_29_111
*1088 FILLER_0_29_113
*1089 FILLER_0_29_121
*1090 FILLER_0_29_127
*1091 FILLER_0_29_139
*1092 FILLER_0_29_147
*1093 FILLER_0_29_15
*1094 FILLER_0_29_153
*1095 FILLER_0_29_165
*1096 FILLER_0_29_169
*1097 FILLER_0_29_177
*1098 FILLER_0_29_187
*1099 FILLER_0_29_199
*1100 FILLER_0_29_211
*1101 FILLER_0_29_218
*1102 FILLER_0_29_225
*1103 FILLER_0_29_247
*1104 FILLER_0_29_265
*1105 FILLER_0_29_275
*1106 FILLER_0_29_279
*1107 FILLER_0_29_281
*1108 FILLER_0_29_289
*1109 FILLER_0_29_3
*1110 FILLER_0_29_311
*1111 FILLER_0_29_332
*1112 FILLER_0_29_346
*1113 FILLER_0_29_350
*1114 FILLER_0_29_43
*1115 FILLER_0_29_55
*1116 FILLER_0_29_57
*1117 FILLER_0_29_65
*1118 FILLER_0_29_73
*1119 FILLER_0_29_81
*1120 FILLER_0_29_93
*1121 FILLER_0_2_109
*1122 FILLER_0_2_121
*1123 FILLER_0_2_133
*1124 FILLER_0_2_139
*1125 FILLER_0_2_141
*1126 FILLER_0_2_15
*1127 FILLER_0_2_153
*1128 FILLER_0_2_165
*1129 FILLER_0_2_177
*1130 FILLER_0_2_189
*1131 FILLER_0_2_195
*1132 FILLER_0_2_197
*1133 FILLER_0_2_209
*1134 FILLER_0_2_221
*1135 FILLER_0_2_233
*1136 FILLER_0_2_245
*1137 FILLER_0_2_251
*1138 FILLER_0_2_253
*1139 FILLER_0_2_265
*1140 FILLER_0_2_27
*1141 FILLER_0_2_277
*1142 FILLER_0_2_289
*1143 FILLER_0_2_29
*1144 FILLER_0_2_3
*1145 FILLER_0_2_301
*1146 FILLER_0_2_307
*1147 FILLER_0_2_309
*1148 FILLER_0_2_321
*1149 FILLER_0_2_333
*1150 FILLER_0_2_345
*1151 FILLER_0_2_41
*1152 FILLER_0_2_53
*1153 FILLER_0_2_65
*1154 FILLER_0_2_77
*1155 FILLER_0_2_83
*1156 FILLER_0_2_85
*1157 FILLER_0_2_97
*1158 FILLER_0_30_100
*1159 FILLER_0_30_126
*1160 FILLER_0_30_138
*1161 FILLER_0_30_141
*1162 FILLER_0_30_15
*1163 FILLER_0_30_153
*1164 FILLER_0_30_161
*1165 FILLER_0_30_176
*1166 FILLER_0_30_192
*1167 FILLER_0_30_197
*1168 FILLER_0_30_203
*1169 FILLER_0_30_260
*1170 FILLER_0_30_264
*1171 FILLER_0_30_268
*1172 FILLER_0_30_27
*1173 FILLER_0_30_288
*1174 FILLER_0_30_3
*1175 FILLER_0_30_300
*1176 FILLER_0_30_322
*1177 FILLER_0_30_57
*1178 FILLER_0_30_65
*1179 FILLER_0_30_80
*1180 FILLER_0_30_85
*1181 FILLER_0_31_123
*1182 FILLER_0_31_135
*1183 FILLER_0_31_147
*1184 FILLER_0_31_15
*1185 FILLER_0_31_151
*1186 FILLER_0_31_164
*1187 FILLER_0_31_176
*1188 FILLER_0_31_185
*1189 FILLER_0_31_197
*1190 FILLER_0_31_209
*1191 FILLER_0_31_228
*1192 FILLER_0_31_257
*1193 FILLER_0_31_269
*1194 FILLER_0_31_278
*1195 FILLER_0_31_288
*1196 FILLER_0_31_3
*1197 FILLER_0_31_333
*1198 FILLER_0_31_346
*1199 FILLER_0_31_350
*1200 FILLER_0_31_40
*1201 FILLER_0_31_52
*1202 FILLER_0_31_57
*1203 FILLER_0_31_71
*1204 FILLER_0_31_79
*1205 FILLER_0_31_91
*1206 FILLER_0_31_99
*1207 FILLER_0_32_126
*1208 FILLER_0_32_141
*1209 FILLER_0_32_15
*1210 FILLER_0_32_173
*1211 FILLER_0_32_185
*1212 FILLER_0_32_193
*1213 FILLER_0_32_197
*1214 FILLER_0_32_238
*1215 FILLER_0_32_253
*1216 FILLER_0_32_265
*1217 FILLER_0_32_27
*1218 FILLER_0_32_29
*1219 FILLER_0_32_291
*1220 FILLER_0_32_3
*1221 FILLER_0_32_303
*1222 FILLER_0_32_307
*1223 FILLER_0_32_309
*1224 FILLER_0_32_321
*1225 FILLER_0_32_41
*1226 FILLER_0_32_53
*1227 FILLER_0_32_82
*1228 FILLER_0_32_85
*1229 FILLER_0_32_97
*1230 FILLER_0_33_101
*1231 FILLER_0_33_110
*1232 FILLER_0_33_123
*1233 FILLER_0_33_131
*1234 FILLER_0_33_146
*1235 FILLER_0_33_15
*1236 FILLER_0_33_160
*1237 FILLER_0_33_169
*1238 FILLER_0_33_181
*1239 FILLER_0_33_193
*1240 FILLER_0_33_201
*1241 FILLER_0_33_206
*1242 FILLER_0_33_214
*1243 FILLER_0_33_219
*1244 FILLER_0_33_223
*1245 FILLER_0_33_225
*1246 FILLER_0_33_246
*1247 FILLER_0_33_258
*1248 FILLER_0_33_269
*1249 FILLER_0_33_27
*1250 FILLER_0_33_277
*1251 FILLER_0_33_288
*1252 FILLER_0_33_294
*1253 FILLER_0_33_3
*1254 FILLER_0_33_304
*1255 FILLER_0_33_316
*1256 FILLER_0_33_334
*1257 FILLER_0_33_346
*1258 FILLER_0_33_350
*1259 FILLER_0_33_39
*1260 FILLER_0_33_51
*1261 FILLER_0_33_55
*1262 FILLER_0_33_57
*1263 FILLER_0_33_77
*1264 FILLER_0_33_89
*1265 FILLER_0_34_107
*1266 FILLER_0_34_119
*1267 FILLER_0_34_131
*1268 FILLER_0_34_139
*1269 FILLER_0_34_148
*1270 FILLER_0_34_15
*1271 FILLER_0_34_160
*1272 FILLER_0_34_176
*1273 FILLER_0_34_197
*1274 FILLER_0_34_205
*1275 FILLER_0_34_240
*1276 FILLER_0_34_253
*1277 FILLER_0_34_261
*1278 FILLER_0_34_27
*1279 FILLER_0_34_270
*1280 FILLER_0_34_287
*1281 FILLER_0_34_29
*1282 FILLER_0_34_3
*1283 FILLER_0_34_307
*1284 FILLER_0_34_309
*1285 FILLER_0_34_323
*1286 FILLER_0_34_345
*1287 FILLER_0_34_41
*1288 FILLER_0_34_53
*1289 FILLER_0_34_65
*1290 FILLER_0_34_73
*1291 FILLER_0_34_81
*1292 FILLER_0_34_85
*1293 FILLER_0_34_97
*1294 FILLER_0_35_106
*1295 FILLER_0_35_113
*1296 FILLER_0_35_121
*1297 FILLER_0_35_129
*1298 FILLER_0_35_141
*1299 FILLER_0_35_15
*1300 FILLER_0_35_153
*1301 FILLER_0_35_166
*1302 FILLER_0_35_169
*1303 FILLER_0_35_182
*1304 FILLER_0_35_188
*1305 FILLER_0_35_210
*1306 FILLER_0_35_214
*1307 FILLER_0_35_234
*1308 FILLER_0_35_256
*1309 FILLER_0_35_264
*1310 FILLER_0_35_27
*1311 FILLER_0_35_276
*1312 FILLER_0_35_281
*1313 FILLER_0_35_291
*1314 FILLER_0_35_3
*1315 FILLER_0_35_320
*1316 FILLER_0_35_337
*1317 FILLER_0_35_39
*1318 FILLER_0_35_51
*1319 FILLER_0_35_55
*1320 FILLER_0_35_57
*1321 FILLER_0_35_69
*1322 FILLER_0_35_77
*1323 FILLER_0_35_91
*1324 FILLER_0_35_99
*1325 FILLER_0_36_122
*1326 FILLER_0_36_138
*1327 FILLER_0_36_141
*1328 FILLER_0_36_15
*1329 FILLER_0_36_167
*1330 FILLER_0_36_184
*1331 FILLER_0_36_206
*1332 FILLER_0_36_214
*1333 FILLER_0_36_232
*1334 FILLER_0_36_251
*1335 FILLER_0_36_257
*1336 FILLER_0_36_27
*1337 FILLER_0_36_29
*1338 FILLER_0_36_293
*1339 FILLER_0_36_3
*1340 FILLER_0_36_307
*1341 FILLER_0_36_41
*1342 FILLER_0_36_53
*1343 FILLER_0_36_65
*1344 FILLER_0_36_77
*1345 FILLER_0_36_83
*1346 FILLER_0_36_85
*1347 FILLER_0_37_11
*1348 FILLER_0_37_113
*1349 FILLER_0_37_119
*1350 FILLER_0_37_191
*1351 FILLER_0_37_204
*1352 FILLER_0_37_212
*1353 FILLER_0_37_22
*1354 FILLER_0_37_249
*1355 FILLER_0_37_262
*1356 FILLER_0_37_277
*1357 FILLER_0_37_28
*1358 FILLER_0_37_293
*1359 FILLER_0_37_3
*1360 FILLER_0_37_305
*1361 FILLER_0_37_313
*1362 FILLER_0_37_337
*1363 FILLER_0_37_36
*1364 FILLER_0_37_44
*1365 FILLER_0_37_52
*1366 FILLER_0_37_61
*1367 FILLER_0_37_68
*1368 FILLER_0_37_80
*1369 FILLER_0_37_92
*1370 FILLER_0_38_111
*1371 FILLER_0_38_125
*1372 FILLER_0_38_137
*1373 FILLER_0_38_141
*1374 FILLER_0_38_15
*1375 FILLER_0_38_153
*1376 FILLER_0_38_173
*1377 FILLER_0_38_185
*1378 FILLER_0_38_193
*1379 FILLER_0_38_197
*1380 FILLER_0_38_209
*1381 FILLER_0_38_215
*1382 FILLER_0_38_222
*1383 FILLER_0_38_225
*1384 FILLER_0_38_250
*1385 FILLER_0_38_265
*1386 FILLER_0_38_27
*1387 FILLER_0_38_270
*1388 FILLER_0_38_274
*1389 FILLER_0_38_278
*1390 FILLER_0_38_29
*1391 FILLER_0_38_3
*1392 FILLER_0_38_302
*1393 FILLER_0_38_335
*1394 FILLER_0_38_350
*1395 FILLER_0_38_41
*1396 FILLER_0_38_53
*1397 FILLER_0_38_57
*1398 FILLER_0_38_69
*1399 FILLER_0_38_78
*1400 FILLER_0_38_88
*1401 FILLER_0_3_105
*1402 FILLER_0_3_111
*1403 FILLER_0_3_113
*1404 FILLER_0_3_125
*1405 FILLER_0_3_137
*1406 FILLER_0_3_149
*1407 FILLER_0_3_15
*1408 FILLER_0_3_161
*1409 FILLER_0_3_167
*1410 FILLER_0_3_169
*1411 FILLER_0_3_181
*1412 FILLER_0_3_193
*1413 FILLER_0_3_205
*1414 FILLER_0_3_217
*1415 FILLER_0_3_223
*1416 FILLER_0_3_225
*1417 FILLER_0_3_237
*1418 FILLER_0_3_249
*1419 FILLER_0_3_261
*1420 FILLER_0_3_27
*1421 FILLER_0_3_273
*1422 FILLER_0_3_279
*1423 FILLER_0_3_281
*1424 FILLER_0_3_293
*1425 FILLER_0_3_3
*1426 FILLER_0_3_305
*1427 FILLER_0_3_317
*1428 FILLER_0_3_329
*1429 FILLER_0_3_335
*1430 FILLER_0_3_337
*1431 FILLER_0_3_349
*1432 FILLER_0_3_39
*1433 FILLER_0_3_51
*1434 FILLER_0_3_55
*1435 FILLER_0_3_57
*1436 FILLER_0_3_69
*1437 FILLER_0_3_81
*1438 FILLER_0_3_93
*1439 FILLER_0_4_109
*1440 FILLER_0_4_121
*1441 FILLER_0_4_133
*1442 FILLER_0_4_139
*1443 FILLER_0_4_141
*1444 FILLER_0_4_15
*1445 FILLER_0_4_153
*1446 FILLER_0_4_165
*1447 FILLER_0_4_177
*1448 FILLER_0_4_189
*1449 FILLER_0_4_195
*1450 FILLER_0_4_197
*1451 FILLER_0_4_209
*1452 FILLER_0_4_221
*1453 FILLER_0_4_233
*1454 FILLER_0_4_245
*1455 FILLER_0_4_251
*1456 FILLER_0_4_253
*1457 FILLER_0_4_265
*1458 FILLER_0_4_27
*1459 FILLER_0_4_277
*1460 FILLER_0_4_289
*1461 FILLER_0_4_29
*1462 FILLER_0_4_3
*1463 FILLER_0_4_301
*1464 FILLER_0_4_307
*1465 FILLER_0_4_309
*1466 FILLER_0_4_321
*1467 FILLER_0_4_333
*1468 FILLER_0_4_345
*1469 FILLER_0_4_41
*1470 FILLER_0_4_53
*1471 FILLER_0_4_65
*1472 FILLER_0_4_77
*1473 FILLER_0_4_83
*1474 FILLER_0_4_85
*1475 FILLER_0_4_97
*1476 FILLER_0_5_105
*1477 FILLER_0_5_111
*1478 FILLER_0_5_113
*1479 FILLER_0_5_125
*1480 FILLER_0_5_137
*1481 FILLER_0_5_149
*1482 FILLER_0_5_15
*1483 FILLER_0_5_161
*1484 FILLER_0_5_167
*1485 FILLER_0_5_169
*1486 FILLER_0_5_181
*1487 FILLER_0_5_193
*1488 FILLER_0_5_205
*1489 FILLER_0_5_217
*1490 FILLER_0_5_223
*1491 FILLER_0_5_225
*1492 FILLER_0_5_237
*1493 FILLER_0_5_249
*1494 FILLER_0_5_261
*1495 FILLER_0_5_27
*1496 FILLER_0_5_273
*1497 FILLER_0_5_279
*1498 FILLER_0_5_281
*1499 FILLER_0_5_293
*1500 FILLER_0_5_3
*1501 FILLER_0_5_305
*1502 FILLER_0_5_317
*1503 FILLER_0_5_329
*1504 FILLER_0_5_335
*1505 FILLER_0_5_337
*1506 FILLER_0_5_349
*1507 FILLER_0_5_39
*1508 FILLER_0_5_51
*1509 FILLER_0_5_55
*1510 FILLER_0_5_57
*1511 FILLER_0_5_69
*1512 FILLER_0_5_81
*1513 FILLER_0_5_93
*1514 FILLER_0_6_109
*1515 FILLER_0_6_121
*1516 FILLER_0_6_133
*1517 FILLER_0_6_139
*1518 FILLER_0_6_141
*1519 FILLER_0_6_15
*1520 FILLER_0_6_153
*1521 FILLER_0_6_165
*1522 FILLER_0_6_177
*1523 FILLER_0_6_189
*1524 FILLER_0_6_195
*1525 FILLER_0_6_197
*1526 FILLER_0_6_209
*1527 FILLER_0_6_221
*1528 FILLER_0_6_233
*1529 FILLER_0_6_245
*1530 FILLER_0_6_251
*1531 FILLER_0_6_253
*1532 FILLER_0_6_265
*1533 FILLER_0_6_27
*1534 FILLER_0_6_277
*1535 FILLER_0_6_289
*1536 FILLER_0_6_29
*1537 FILLER_0_6_3
*1538 FILLER_0_6_301
*1539 FILLER_0_6_307
*1540 FILLER_0_6_309
*1541 FILLER_0_6_321
*1542 FILLER_0_6_333
*1543 FILLER_0_6_345
*1544 FILLER_0_6_41
*1545 FILLER_0_6_53