*SPEF "ieee 1481-1999"
*DESIGN "tt_um_wokwi_347140425276981843"
*DATE "11:11:11 Fri 11 11, 1111"
*VENDOR "OpenRCX"
*PROGRAM "Parallel Extraction"
*VERSION "1.0"
*DESIGN_FLOW "NAME_SCOPE LOCAL" "PIN_CAP NONE"
*DIVIDER /
*DELIMITER :
*BUS_DELIMITER []
*T_UNIT 1 NS
*C_UNIT 1 PF
*R_UNIT 1 OHM
*L_UNIT 1 HENRY

*NAME_MAP
*1 clk
*2 ena
*3 rst_n
*4 ui_in[0]
*5 ui_in[1]
*6 ui_in[2]
*7 ui_in[3]
*8 ui_in[4]
*9 ui_in[5]
*10 ui_in[6]
*11 ui_in[7]
*12 uio_in[0]
*13 uio_in[1]
*14 uio_in[2]
*15 uio_in[3]
*16 uio_in[4]
*17 uio_in[5]
*18 uio_in[6]
*19 uio_in[7]
*20 net8
*21 net9
*22 net10
*23 net11
*24 net12
*25 net13
*26 net14
*27 net15
*28 net16
*29 net17
*30 net18
*31 net19
*32 net20
*33 net21
*34 net22
*35 net23
*36 uo_out[0]
*37 net24
*38 net25
*39 net26
*40 net27
*41 uo_out[5]
*42 net28
*43 uo_out[7]
*46 _000_
*47 _001_
*48 _002_
*49 _003_
*50 _004_
*51 _005_
*52 _006_
*53 _007_
*54 _008_
*55 _009_
*56 _010_
*57 _011_
*58 _012_
*59 _013_
*60 _014_
*61 _015_
*62 _016_
*63 _017_
*64 _018_
*65 _019_
*66 _020_
*67 _021_
*68 _022_
*69 _023_
*70 _024_
*71 _025_
*72 _026_
*73 _027_
*74 _028_
*75 _029_
*76 clknet_0_clk
*77 clknet_1_0__leaf_clk
*78 clknet_1_1__leaf_clk
*79 flop1\.q
*80 flop10\.d
*81 flop10\.q
*82 flop11\.d
*83 flop11\.q
*84 flop12\.q
*85 flop13\.q
*86 flop14\.q
*87 flop15\.q
*88 flop16\.q
*89 flop17\.q
*90 flop18\.q
*91 flop3\.q
*92 flop4\.q
*93 flop5\.q
*94 flop6\.q
*95 flop7\.d
*96 flop7\.q
*97 flop8\.d
*98 flop8\.q
*99 flop9\.d
*100 flop9\.q
*101 mux18\.b
*102 net1
*103 net2
*104 net29
*105 net3
*106 net30
*107 net31
*108 net32
*109 net33
*110 net34
*111 net35
*112 net36
*113 net37
*114 net38
*115 net39
*116 net4
*117 net40
*118 net41
*119 net42
*120 net43
*121 net44
*122 net45
*123 net5
*124 net6
*125 net7
*126 FILLER_0_0_109
*127 FILLER_0_0_113
*128 FILLER_0_0_125
*129 FILLER_0_0_137
*130 FILLER_0_0_141
*131 FILLER_0_0_15
*132 FILLER_0_0_153
*133 FILLER_0_0_165
*134 FILLER_0_0_169
*135 FILLER_0_0_181
*136 FILLER_0_0_193
*137 FILLER_0_0_197
*138 FILLER_0_0_209
*139 FILLER_0_0_221
*140 FILLER_0_0_225
*141 FILLER_0_0_237
*142 FILLER_0_0_249
*143 FILLER_0_0_253
*144 FILLER_0_0_265
*145 FILLER_0_0_27
*146 FILLER_0_0_277
*147 FILLER_0_0_281
*148 FILLER_0_0_29
*149 FILLER_0_0_293
*150 FILLER_0_0_3
*151 FILLER_0_0_305
*152 FILLER_0_0_309
*153 FILLER_0_0_321
*154 FILLER_0_0_333
*155 FILLER_0_0_337
*156 FILLER_0_0_41
*157 FILLER_0_0_53
*158 FILLER_0_0_57
*159 FILLER_0_0_69
*160 FILLER_0_0_81
*161 FILLER_0_0_85
*162 FILLER_0_0_97
*163 FILLER_0_10_109
*164 FILLER_0_10_121
*165 FILLER_0_10_133
*166 FILLER_0_10_139
*167 FILLER_0_10_141
*168 FILLER_0_10_15
*169 FILLER_0_10_153
*170 FILLER_0_10_165
*171 FILLER_0_10_177
*172 FILLER_0_10_189
*173 FILLER_0_10_195
*174 FILLER_0_10_197
*175 FILLER_0_10_209
*176 FILLER_0_10_221
*177 FILLER_0_10_233
*178 FILLER_0_10_245
*179 FILLER_0_10_251
*180 FILLER_0_10_253
*181 FILLER_0_10_265
*182 FILLER_0_10_27
*183 FILLER_0_10_277
*184 FILLER_0_10_289
*185 FILLER_0_10_29
*186 FILLER_0_10_3
*187 FILLER_0_10_301
*188 FILLER_0_10_307
*189 FILLER_0_10_309
*190 FILLER_0_10_321
*191 FILLER_0_10_333
*192 FILLER_0_10_41
*193 FILLER_0_10_53
*194 FILLER_0_10_65
*195 FILLER_0_10_77
*196 FILLER_0_10_83
*197 FILLER_0_10_85
*198 FILLER_0_10_97
*199 FILLER_0_11_105
*200 FILLER_0_11_111
*201 FILLER_0_11_113
*202 FILLER_0_11_125
*203 FILLER_0_11_137
*204 FILLER_0_11_149
*205 FILLER_0_11_15
*206 FILLER_0_11_161
*207 FILLER_0_11_167
*208 FILLER_0_11_169
*209 FILLER_0_11_181
*210 FILLER_0_11_193
*211 FILLER_0_11_205
*212 FILLER_0_11_217
*213 FILLER_0_11_223
*214 FILLER_0_11_225
*215 FILLER_0_11_237
*216 FILLER_0_11_249
*217 FILLER_0_11_261
*218 FILLER_0_11_27
*219 FILLER_0_11_273
*220 FILLER_0_11_279
*221 FILLER_0_11_281
*222 FILLER_0_11_293
*223 FILLER_0_11_3
*224 FILLER_0_11_305
*225 FILLER_0_11_317
*226 FILLER_0_11_329
*227 FILLER_0_11_335
*228 FILLER_0_11_337
*229 FILLER_0_11_39
*230 FILLER_0_11_51
*231 FILLER_0_11_55
*232 FILLER_0_11_57
*233 FILLER_0_11_69
*234 FILLER_0_11_81
*235 FILLER_0_11_93
*236 FILLER_0_12_109
*237 FILLER_0_12_121
*238 FILLER_0_12_133
*239 FILLER_0_12_139
*240 FILLER_0_12_141
*241 FILLER_0_12_15
*242 FILLER_0_12_153
*243 FILLER_0_12_165
*244 FILLER_0_12_177
*245 FILLER_0_12_189
*246 FILLER_0_12_195
*247 FILLER_0_12_197
*248 FILLER_0_12_209
*249 FILLER_0_12_221
*250 FILLER_0_12_233
*251 FILLER_0_12_245
*252 FILLER_0_12_251
*253 FILLER_0_12_253
*254 FILLER_0_12_265
*255 FILLER_0_12_27
*256 FILLER_0_12_277
*257 FILLER_0_12_289
*258 FILLER_0_12_29
*259 FILLER_0_12_3
*260 FILLER_0_12_301
*261 FILLER_0_12_307
*262 FILLER_0_12_309
*263 FILLER_0_12_321
*264 FILLER_0_12_333
*265 FILLER_0_12_41
*266 FILLER_0_12_53
*267 FILLER_0_12_65
*268 FILLER_0_12_77
*269 FILLER_0_12_83
*270 FILLER_0_12_85
*271 FILLER_0_12_97
*272 FILLER_0_13_105
*273 FILLER_0_13_111
*274 FILLER_0_13_113
*275 FILLER_0_13_125
*276 FILLER_0_13_137
*277 FILLER_0_13_149
*278 FILLER_0_13_15
*279 FILLER_0_13_161
*280 FILLER_0_13_167
*281 FILLER_0_13_169
*282 FILLER_0_13_181
*283 FILLER_0_13_193
*284 FILLER_0_13_205
*285 FILLER_0_13_217
*286 FILLER_0_13_223
*287 FILLER_0_13_225
*288 FILLER_0_13_237
*289 FILLER_0_13_249
*290 FILLER_0_13_261
*291 FILLER_0_13_27
*292 FILLER_0_13_273
*293 FILLER_0_13_279
*294 FILLER_0_13_281
*295 FILLER_0_13_293
*296 FILLER_0_13_3
*297 FILLER_0_13_305
*298 FILLER_0_13_317
*299 FILLER_0_13_329
*300 FILLER_0_13_335
*301 FILLER_0_13_337
*302 FILLER_0_13_39
*303 FILLER_0_13_51
*304 FILLER_0_13_55
*305 FILLER_0_13_57
*306 FILLER_0_13_69
*307 FILLER_0_13_81
*308 FILLER_0_13_93
*309 FILLER_0_14_109
*310 FILLER_0_14_121
*311 FILLER_0_14_133
*312 FILLER_0_14_139
*313 FILLER_0_14_141
*314 FILLER_0_14_15
*315 FILLER_0_14_153
*316 FILLER_0_14_165
*317 FILLER_0_14_177
*318 FILLER_0_14_189
*319 FILLER_0_14_195
*320 FILLER_0_14_197
*321 FILLER_0_14_209
*322 FILLER_0_14_221
*323 FILLER_0_14_233
*324 FILLER_0_14_245
*325 FILLER_0_14_251
*326 FILLER_0_14_253
*327 FILLER_0_14_265
*328 FILLER_0_14_27
*329 FILLER_0_14_277
*330 FILLER_0_14_289
*331 FILLER_0_14_29
*332 FILLER_0_14_3
*333 FILLER_0_14_301
*334 FILLER_0_14_307
*335 FILLER_0_14_309
*336 FILLER_0_14_321
*337 FILLER_0_14_333
*338 FILLER_0_14_41
*339 FILLER_0_14_53
*340 FILLER_0_14_65
*341 FILLER_0_14_77
*342 FILLER_0_14_83
*343 FILLER_0_14_85
*344 FILLER_0_14_97
*345 FILLER_0_15_105
*346 FILLER_0_15_111
*347 FILLER_0_15_113
*348 FILLER_0_15_125
*349 FILLER_0_15_137
*350 FILLER_0_15_149
*351 FILLER_0_15_15
*352 FILLER_0_15_161
*353 FILLER_0_15_167
*354 FILLER_0_15_169
*355 FILLER_0_15_181
*356 FILLER_0_15_193
*357 FILLER_0_15_205
*358 FILLER_0_15_217
*359 FILLER_0_15_223
*360 FILLER_0_15_225
*361 FILLER_0_15_237
*362 FILLER_0_15_249
*363 FILLER_0_15_261
*364 FILLER_0_15_27
*365 FILLER_0_15_273
*366 FILLER_0_15_279
*367 FILLER_0_15_281
*368 FILLER_0_15_293
*369 FILLER_0_15_3
*370 FILLER_0_15_305
*371 FILLER_0_15_317
*372 FILLER_0_15_329
*373 FILLER_0_15_335
*374 FILLER_0_15_337
*375 FILLER_0_15_39
*376 FILLER_0_15_51
*377 FILLER_0_15_55
*378 FILLER_0_15_57
*379 FILLER_0_15_69
*380 FILLER_0_15_81
*381 FILLER_0_15_93
*382 FILLER_0_16_109
*383 FILLER_0_16_121
*384 FILLER_0_16_133
*385 FILLER_0_16_139
*386 FILLER_0_16_141
*387 FILLER_0_16_15
*388 FILLER_0_16_153
*389 FILLER_0_16_165
*390 FILLER_0_16_177
*391 FILLER_0_16_189
*392 FILLER_0_16_195
*393 FILLER_0_16_197
*394 FILLER_0_16_209
*395 FILLER_0_16_221
*396 FILLER_0_16_233
*397 FILLER_0_16_245
*398 FILLER_0_16_251
*399 FILLER_0_16_253
*400 FILLER_0_16_265
*401 FILLER_0_16_27
*402 FILLER_0_16_277
*403 FILLER_0_16_289
*404 FILLER_0_16_29
*405 FILLER_0_16_3
*406 FILLER_0_16_301
*407 FILLER_0_16_307
*408 FILLER_0_16_309
*409 FILLER_0_16_321
*410 FILLER_0_16_333
*411 FILLER_0_16_41
*412 FILLER_0_16_53
*413 FILLER_0_16_65
*414 FILLER_0_16_77
*415 FILLER_0_16_83
*416 FILLER_0_16_85
*417 FILLER_0_16_97
*418 FILLER_0_17_105
*419 FILLER_0_17_111
*420 FILLER_0_17_113
*421 FILLER_0_17_125
*422 FILLER_0_17_137
*423 FILLER_0_17_149
*424 FILLER_0_17_15
*425 FILLER_0_17_161
*426 FILLER_0_17_167
*427 FILLER_0_17_169
*428 FILLER_0_17_181
*429 FILLER_0_17_193
*430 FILLER_0_17_205
*431 FILLER_0_17_217
*432 FILLER_0_17_223
*433 FILLER_0_17_225
*434 FILLER_0_17_237
*435 FILLER_0_17_249
*436 FILLER_0_17_261
*437 FILLER_0_17_27
*438 FILLER_0_17_273
*439 FILLER_0_17_279
*440 FILLER_0_17_281
*441 FILLER_0_17_293
*442 FILLER_0_17_3
*443 FILLER_0_17_305
*444 FILLER_0_17_317
*445 FILLER_0_17_329
*446 FILLER_0_17_335
*447 FILLER_0_17_337
*448 FILLER_0_17_39
*449 FILLER_0_17_51
*450 FILLER_0_17_55
*451 FILLER_0_17_57
*452 FILLER_0_17_69
*453 FILLER_0_17_81
*454 FILLER_0_17_93
*455 FILLER_0_18_109
*456 FILLER_0_18_121
*457 FILLER_0_18_133
*458 FILLER_0_18_139
*459 FILLER_0_18_141
*460 FILLER_0_18_15
*461 FILLER_0_18_153
*462 FILLER_0_18_165
*463 FILLER_0_18_177
*464 FILLER_0_18_189
*465 FILLER_0_18_195
*466 FILLER_0_18_197
*467 FILLER_0_18_209
*468 FILLER_0_18_221
*469 FILLER_0_18_233
*470 FILLER_0_18_245
*471 FILLER_0_18_251
*472 FILLER_0_18_253
*473 FILLER_0_18_265
*474 FILLER_0_18_27
*475 FILLER_0_18_277
*476 FILLER_0_18_289
*477 FILLER_0_18_29
*478 FILLER_0_18_3
*479 FILLER_0_18_301
*480 FILLER_0_18_307
*481 FILLER_0_18_309
*482 FILLER_0_18_321
*483 FILLER_0_18_333
*484 FILLER_0_18_41
*485 FILLER_0_18_53
*486 FILLER_0_18_65
*487 FILLER_0_18_77
*488 FILLER_0_18_83
*489 FILLER_0_18_85
*490 FILLER_0_18_97
*491 FILLER_0_19_105
*492 FILLER_0_19_111
*493 FILLER_0_19_113
*494 FILLER_0_19_125
*495 FILLER_0_19_137
*496 FILLER_0_19_149
*497 FILLER_0_19_15
*498 FILLER_0_19_161
*499 FILLER_0_19_167
*500 FILLER_0_19_169
*501 FILLER_0_19_181
*502 FILLER_0_19_193
*503 FILLER_0_19_205
*504 FILLER_0_19_217
*505 FILLER_0_19_223
*506 FILLER_0_19_225
*507 FILLER_0_19_237
*508 FILLER_0_19_249
*509 FILLER_0_19_261
*510 FILLER_0_19_27
*511 FILLER_0_19_273
*512 FILLER_0_19_279
*513 FILLER_0_19_281
*514 FILLER_0_19_293
*515 FILLER_0_19_3
*516 FILLER_0_19_305
*517 FILLER_0_19_317
*518 FILLER_0_19_329
*519 FILLER_0_19_335
*520 FILLER_0_19_337
*521 FILLER_0_19_39
*522 FILLER_0_19_51
*523 FILLER_0_19_55
*524 FILLER_0_19_57
*525 FILLER_0_19_69
*526 FILLER_0_19_81
*527 FILLER_0_19_93
*528 FILLER_0_1_105
*529 FILLER_0_1_111
*530 FILLER_0_1_113
*531 FILLER_0_1_125
*532 FILLER_0_1_137
*533 FILLER_0_1_149
*534 FILLER_0_1_15
*535 FILLER_0_1_161
*536 FILLER_0_1_167
*537 FILLER_0_1_169
*538 FILLER_0_1_181
*539 FILLER_0_1_193
*540 FILLER_0_1_205
*541 FILLER_0_1_217
*542 FILLER_0_1_223
*543 FILLER_0_1_225
*544 FILLER_0_1_237
*545 FILLER_0_1_249
*546 FILLER_0_1_261
*547 FILLER_0_1_27
*548 FILLER_0_1_273
*549 FILLER_0_1_279
*550 FILLER_0_1_281
*551 FILLER_0_1_293
*552 FILLER_0_1_3
*553 FILLER_0_1_305
*554 FILLER_0_1_317
*555 FILLER_0_1_329
*556 FILLER_0_1_335
*557 FILLER_0_1_337
*558 FILLER_0_1_39
*559 FILLER_0_1_51
*560 FILLER_0_1_55
*561 FILLER_0_1_57
*562 FILLER_0_1_69
*563 FILLER_0_1_81
*564 FILLER_0_1_93
*565 FILLER_0_20_109
*566 FILLER_0_20_121
*567 FILLER_0_20_133
*568 FILLER_0_20_139
*569 FILLER_0_20_141
*570 FILLER_0_20_15
*571 FILLER_0_20_153
*572 FILLER_0_20_165
*573 FILLER_0_20_177
*574 FILLER_0_20_189
*575 FILLER_0_20_195
*576 FILLER_0_20_197
*577 FILLER_0_20_209
*578 FILLER_0_20_221
*579 FILLER_0_20_233
*580 FILLER_0_20_245
*581 FILLER_0_20_251
*582 FILLER_0_20_253
*583 FILLER_0_20_265
*584 FILLER_0_20_27
*585 FILLER_0_20_277
*586 FILLER_0_20_289
*587 FILLER_0_20_29
*588 FILLER_0_20_3
*589 FILLER_0_20_301
*590 FILLER_0_20_307
*591 FILLER_0_20_309
*592 FILLER_0_20_321
*593 FILLER_0_20_333
*594 FILLER_0_20_41
*595 FILLER_0_20_53
*596 FILLER_0_20_65
*597 FILLER_0_20_77
*598 FILLER_0_20_83
*599 FILLER_0_20_85
*600 FILLER_0_20_97
*601 FILLER_0_21_105
*602 FILLER_0_21_111
*603 FILLER_0_21_113
*604 FILLER_0_21_125
*605 FILLER_0_21_137
*606 FILLER_0_21_149
*607 FILLER_0_21_15
*608 FILLER_0_21_161
*609 FILLER_0_21_167
*610 FILLER_0_21_169
*611 FILLER_0_21_181
*612 FILLER_0_21_193
*613 FILLER_0_21_205
*614 FILLER_0_21_217
*615 FILLER_0_21_223
*616 FILLER_0_21_225
*617 FILLER_0_21_237
*618 FILLER_0_21_249
*619 FILLER_0_21_261
*620 FILLER_0_21_27
*621 FILLER_0_21_273
*622 FILLER_0_21_279
*623 FILLER_0_21_281
*624 FILLER_0_21_293
*625 FILLER_0_21_3
*626 FILLER_0_21_305
*627 FILLER_0_21_317
*628 FILLER_0_21_329
*629 FILLER_0_21_335
*630 FILLER_0_21_337
*631 FILLER_0_21_39
*632 FILLER_0_21_51
*633 FILLER_0_21_55
*634 FILLER_0_21_57
*635 FILLER_0_21_69
*636 FILLER_0_21_81
*637 FILLER_0_21_93
*638 FILLER_0_22_109
*639 FILLER_0_22_121
*640 FILLER_0_22_133
*641 FILLER_0_22_139
*642 FILLER_0_22_141
*643 FILLER_0_22_15
*644 FILLER_0_22_153
*645 FILLER_0_22_165
*646 FILLER_0_22_177
*647 FILLER_0_22_189
*648 FILLER_0_22_195
*649 FILLER_0_22_197
*650 FILLER_0_22_209
*651 FILLER_0_22_221
*652 FILLER_0_22_233
*653 FILLER_0_22_245
*654 FILLER_0_22_251
*655 FILLER_0_22_253
*656 FILLER_0_22_265
*657 FILLER_0_22_27
*658 FILLER_0_22_277
*659 FILLER_0_22_289
*660 FILLER_0_22_29
*661 FILLER_0_22_3
*662 FILLER_0_22_301
*663 FILLER_0_22_307
*664 FILLER_0_22_309
*665 FILLER_0_22_321
*666 FILLER_0_22_333
*667 FILLER_0_22_41
*668 FILLER_0_22_53
*669 FILLER_0_22_65
*670 FILLER_0_22_77
*671 FILLER_0_22_83
*672 FILLER_0_22_85
*673 FILLER_0_22_97
*674 FILLER_0_23_105
*675 FILLER_0_23_111
*676 FILLER_0_23_113
*677 FILLER_0_23_125
*678 FILLER_0_23_137
*679 FILLER_0_23_149
*680 FILLER_0_23_15
*681 FILLER_0_23_161
*682 FILLER_0_23_167
*683 FILLER_0_23_169
*684 FILLER_0_23_181
*685 FILLER_0_23_193
*686 FILLER_0_23_205
*687 FILLER_0_23_217
*688 FILLER_0_23_223
*689 FILLER_0_23_225
*690 FILLER_0_23_237
*691 FILLER_0_23_249
*692 FILLER_0_23_261
*693 FILLER_0_23_27
*694 FILLER_0_23_273
*695 FILLER_0_23_279
*696 FILLER_0_23_281
*697 FILLER_0_23_293
*698 FILLER_0_23_3
*699 FILLER_0_23_305
*700 FILLER_0_23_317
*701 FILLER_0_23_329
*702 FILLER_0_23_335
*703 FILLER_0_23_337
*704 FILLER_0_23_39
*705 FILLER_0_23_51
*706 FILLER_0_23_55
*707 FILLER_0_23_57
*708 FILLER_0_23_69
*709 FILLER_0_23_81
*710 FILLER_0_23_93
*711 FILLER_0_24_109
*712 FILLER_0_24_121
*713 FILLER_0_24_133
*714 FILLER_0_24_139
*715 FILLER_0_24_141
*716 FILLER_0_24_15
*717 FILLER_0_24_153
*718 FILLER_0_24_165
*719 FILLER_0_24_177
*720 FILLER_0_24_189
*721 FILLER_0_24_195
*722 FILLER_0_24_197
*723 FILLER_0_24_209
*724 FILLER_0_24_221
*725 FILLER_0_24_233
*726 FILLER_0_24_245
*727 FILLER_0_24_251
*728 FILLER_0_24_253
*729 FILLER_0_24_265
*730 FILLER_0_24_27
*731 FILLER_0_24_277
*732 FILLER_0_24_289
*733 FILLER_0_24_29
*734 FILLER_0_24_3
*735 FILLER_0_24_301
*736 FILLER_0_24_307
*737 FILLER_0_24_309
*738 FILLER_0_24_321
*739 FILLER_0_24_333
*740 FILLER_0_24_41
*741 FILLER_0_24_53
*742 FILLER_0_24_65
*743 FILLER_0_24_77
*744 FILLER_0_24_83
*745 FILLER_0_24_85
*746 FILLER_0_24_97
*747 FILLER_0_25_105
*748 FILLER_0_25_111
*749 FILLER_0_25_113
*750 FILLER_0_25_125
*751 FILLER_0_25_137
*752 FILLER_0_25_149
*753 FILLER_0_25_15
*754 FILLER_0_25_161
*755 FILLER_0_25_167
*756 FILLER_0_25_169
*757 FILLER_0_25_181
*758 FILLER_0_25_193
*759 FILLER_0_25_205
*760 FILLER_0_25_217
*761 FILLER_0_25_223
*762 FILLER_0_25_225
*763 FILLER_0_25_237
*764 FILLER_0_25_249
*765 FILLER_0_25_261
*766 FILLER_0_25_27
*767 FILLER_0_25_273
*768 FILLER_0_25_279
*769 FILLER_0_25_281
*770 FILLER_0_25_293
*771 FILLER_0_25_3
*772 FILLER_0_25_305
*773 FILLER_0_25_317
*774 FILLER_0_25_329
*775 FILLER_0_25_335
*776 FILLER_0_25_337
*777 FILLER_0_25_39
*778 FILLER_0_25_51
*779 FILLER_0_25_55
*780 FILLER_0_25_57
*781 FILLER_0_25_69
*782 FILLER_0_25_81
*783 FILLER_0_25_93
*784 FILLER_0_26_109
*785 FILLER_0_26_121
*786 FILLER_0_26_133
*787 FILLER_0_26_139
*788 FILLER_0_26_141
*789 FILLER_0_26_15
*790 FILLER_0_26_153
*791 FILLER_0_26_165
*792 FILLER_0_26_177
*793 FILLER_0_26_189
*794 FILLER_0_26_195
*795 FILLER_0_26_197
*796 FILLER_0_26_209
*797 FILLER_0_26_221
*798 FILLER_0_26_233
*799 FILLER_0_26_245
*800 FILLER_0_26_251
*801 FILLER_0_26_253
*802 FILLER_0_26_265
*803 FILLER_0_26_27
*804 FILLER_0_26_277
*805 FILLER_0_26_289
*806 FILLER_0_26_29
*807 FILLER_0_26_3
*808 FILLER_0_26_301
*809 FILLER_0_26_307
*810 FILLER_0_26_309
*811 FILLER_0_26_321
*812 FILLER_0_26_333
*813 FILLER_0_26_41
*814 FILLER_0_26_53
*815 FILLER_0_26_65
*816 FILLER_0_26_77
*817 FILLER_0_26_83
*818 FILLER_0_26_85
*819 FILLER_0_26_97
*820 FILLER_0_27_105
*821 FILLER_0_27_111
*822 FILLER_0_27_113
*823 FILLER_0_27_125
*824 FILLER_0_27_137
*825 FILLER_0_27_149
*826 FILLER_0_27_15
*827 FILLER_0_27_161
*828 FILLER_0_27_167
*829 FILLER_0_27_169
*830 FILLER_0_27_181
*831 FILLER_0_27_193
*832 FILLER_0_27_205
*833 FILLER_0_27_217
*834 FILLER_0_27_223
*835 FILLER_0_27_225
*836 FILLER_0_27_237
*837 FILLER_0_27_249
*838 FILLER_0_27_261
*839 FILLER_0_27_27
*840 FILLER_0_27_273
*841 FILLER_0_27_279
*842 FILLER_0_27_281
*843 FILLER_0_27_293
*844 FILLER_0_27_3
*845 FILLER_0_27_305
*846 FILLER_0_27_317
*847 FILLER_0_27_329
*848 FILLER_0_27_335
*849 FILLER_0_27_337
*850 FILLER_0_27_39
*851 FILLER_0_27_51
*852 FILLER_0_27_55
*853 FILLER_0_27_57
*854 FILLER_0_27_69
*855 FILLER_0_27_81
*856 FILLER_0_27_93
*857 FILLER_0_28_109
*858 FILLER_0_28_121
*859 FILLER_0_28_133
*860 FILLER_0_28_139
*861 FILLER_0_28_141
*862 FILLER_0_28_15
*863 FILLER_0_28_153
*864 FILLER_0_28_165
*865 FILLER_0_28_177
*866 FILLER_0_28_189
*867 FILLER_0_28_195
*868 FILLER_0_28_197
*869 FILLER_0_28_209
*870 FILLER_0_28_221
*871 FILLER_0_28_233
*872 FILLER_0_28_245
*873 FILLER_0_28_251
*874 FILLER_0_28_253
*875 FILLER_0_28_265
*876 FILLER_0_28_27
*877 FILLER_0_28_277
*878 FILLER_0_28_289
*879 FILLER_0_28_29
*880 FILLER_0_28_3
*881 FILLER_0_28_301
*882 FILLER_0_28_307
*883 FILLER_0_28_309
*884 FILLER_0_28_321
*885 FILLER_0_28_333
*886 FILLER_0_28_41
*887 FILLER_0_28_53
*888 FILLER_0_28_65
*889 FILLER_0_28_77
*890 FILLER_0_28_83
*891 FILLER_0_28_85
*892 FILLER_0_28_97
*893 FILLER_0_29_105
*894 FILLER_0_29_111
*895 FILLER_0_29_113
*896 FILLER_0_29_125
*897 FILLER_0_29_137
*898 FILLER_0_29_149
*899 FILLER_0_29_15
*900 FILLER_0_29_161
*901 FILLER_0_29_167
*902 FILLER_0_29_169
*903 FILLER_0_29_181
*904 FILLER_0_29_193
*905 FILLER_0_29_205
*906 FILLER_0_29_217
*907 FILLER_0_29_223
*908 FILLER_0_29_225
*909 FILLER_0_29_237
*910 FILLER_0_29_249
*911 FILLER_0_29_261
*912 FILLER_0_29_27
*913 FILLER_0_29_273
*914 FILLER_0_29_279
*915 FILLER_0_29_281
*916 FILLER_0_29_293
*917 FILLER_0_29_3
*918 FILLER_0_29_305
*919 FILLER_0_29_317
*920 FILLER_0_29_329
*921 FILLER_0_29_335
*922 FILLER_0_29_337
*923 FILLER_0_29_39
*924 FILLER_0_29_51
*925 FILLER_0_29_55
*926 FILLER_0_29_57
*927 FILLER_0_29_69
*928 FILLER_0_29_81
*929 FILLER_0_29_93
*930 FILLER_0_2_109
*931 FILLER_0_2_121
*932 FILLER_0_2_133
*933 FILLER_0_2_139
*934 FILLER_0_2_141
*935 FILLER_0_2_15
*936 FILLER_0_2_153
*937 FILLER_0_2_165
*938 FILLER_0_2_177
*939 FILLER_0_2_189
*940 FILLER_0_2_195
*941 FILLER_0_2_197
*942 FILLER_0_2_209
*943 FILLER_0_2_221
*944 FILLER_0_2_233
*945 FILLER_0_2_245
*946 FILLER_0_2_251
*947 FILLER_0_2_253
*948 FILLER_0_2_265
*949 FILLER_0_2_27
*950 FILLER_0_2_277
*951 FILLER_0_2_289
*952 FILLER_0_2_29
*953 FILLER_0_2_3
*954 FILLER_0_2_301
*955 FILLER_0_2_307
*956 FILLER_0_2_309
*957 FILLER_0_2_321
*958 FILLER_0_2_333
*959 FILLER_0_2_41
*960 FILLER_0_2_53
*961 FILLER_0_2_65
*962 FILLER_0_2_77
*963 FILLER_0_2_83
*964 FILLER_0_2_85
*965 FILLER_0_2_97
*966 FILLER_0_30_109
*967 FILLER_0_30_121
*968 FILLER_0_30_133
*969 FILLER_0_30_139
*970 FILLER_0_30_141
*971 FILLER_0_30_15
*972 FILLER_0_30_153
*973 FILLER_0_30_165
*974 FILLER_0_30_177
*975 FILLER_0_30_189
*976 FILLER_0_30_195
*977 FILLER_0_30_197
*978 FILLER_0_30_209
*979 FILLER_0_30_213
*980 FILLER_0_30_234
*981 FILLER_0_30_246
*982 FILLER_0_30_253
*983 FILLER_0_30_265
*984 FILLER_0_30_27
*985 FILLER_0_30_29
*986 FILLER_0_30_291
*987 FILLER_0_30_3
*988 FILLER_0_30_303
*989 FILLER_0_30_307
*990 FILLER_0_30_309
*991 FILLER_0_30_321
*992 FILLER_0_30_333
*993 FILLER_0_30_41
*994 FILLER_0_30_53
*995 FILLER_0_30_65
*996 FILLER_0_30_77
*997 FILLER_0_30_83
*998 FILLER_0_30_85
*999 FILLER_0_30_97
*1000 FILLER_0_31_105
*1001 FILLER_0_31_111
*1002 FILLER_0_31_113
*1003 FILLER_0_31_125
*1004 FILLER_0_31_137
*1005 FILLER_0_31_149
*1006 FILLER_0_31_15
*1007 FILLER_0_31_161
*1008 FILLER_0_31_167
*1009 FILLER_0_31_169
*1010 FILLER_0_31_185
*1011 FILLER_0_31_197
*1012 FILLER_0_31_209
*1013 FILLER_0_31_221
*1014 FILLER_0_31_225
*1015 FILLER_0_31_237
*1016 FILLER_0_31_251
*1017 FILLER_0_31_267
*1018 FILLER_0_31_27
*1019 FILLER_0_31_279
*1020 FILLER_0_31_281
*1021 FILLER_0_31_293
*1022 FILLER_0_31_3
*1023 FILLER_0_31_305
*1024 FILLER_0_31_317
*1025 FILLER_0_31_329
*1026 FILLER_0_31_335
*1027 FILLER_0_31_337
*1028 FILLER_0_31_39
*1029 FILLER_0_31_51
*1030 FILLER_0_31_55
*1031 FILLER_0_31_57
*1032 FILLER_0_31_69
*1033 FILLER_0_31_81
*1034 FILLER_0_31_93
*1035 FILLER_0_32_109
*1036 FILLER_0_32_121
*1037 FILLER_0_32_133
*1038 FILLER_0_32_139
*1039 FILLER_0_32_141
*1040 FILLER_0_32_15
*1041 FILLER_0_32_153
*1042 FILLER_0_32_177
*1043 FILLER_0_32_203
*1044 FILLER_0_32_211
*1045 FILLER_0_32_222
*1046 FILLER_0_32_226
*1047 FILLER_0_32_243
*1048 FILLER_0_32_27
*1049 FILLER_0_32_280
*1050 FILLER_0_32_29
*1051 FILLER_0_32_292
*1052 FILLER_0_32_3
*1053 FILLER_0_32_300
*1054 FILLER_0_32_304
*1055 FILLER_0_32_309
*1056 FILLER_0_32_321
*1057 FILLER_0_32_333
*1058 FILLER_0_32_41
*1059 FILLER_0_32_53
*1060 FILLER_0_32_65
*1061 FILLER_0_32_77
*1062 FILLER_0_32_83
*1063 FILLER_0_32_85
*1064 FILLER_0_32_97
*1065 FILLER_0_33_105
*1066 FILLER_0_33_111
*1067 FILLER_0_33_113
*1068 FILLER_0_33_125
*1069 FILLER_0_33_137
*1070 FILLER_0_33_149
*1071 FILLER_0_33_15
*1072 FILLER_0_33_161
*1073 FILLER_0_33_167
*1074 FILLER_0_33_169
*1075 FILLER_0_33_177
*1076 FILLER_0_33_181
*1077 FILLER_0_33_193
*1078 FILLER_0_33_219
*1079 FILLER_0_33_223
*1080 FILLER_0_33_236
*1081 FILLER_0_33_242
*1082 FILLER_0_33_259
*1083 FILLER_0_33_27
*1084 FILLER_0_33_279
*1085 FILLER_0_33_281
*1086 FILLER_0_33_293
*1087 FILLER_0_33_3
*1088 FILLER_0_33_313
*1089 FILLER_0_33_325
*1090 FILLER_0_33_333
*1091 FILLER_0_33_337
*1092 FILLER_0_33_39
*1093 FILLER_0_33_51
*1094 FILLER_0_33_55
*1095 FILLER_0_33_57
*1096 FILLER_0_33_69
*1097 FILLER_0_33_81
*1098 FILLER_0_33_93
*1099 FILLER_0_34_109
*1100 FILLER_0_34_121
*1101 FILLER_0_34_133
*1102 FILLER_0_34_139
*1103 FILLER_0_34_141
*1104 FILLER_0_34_15
*1105 FILLER_0_34_153
*1106 FILLER_0_34_161
*1107 FILLER_0_34_167
*1108 FILLER_0_34_175
*1109 FILLER_0_34_192
*1110 FILLER_0_34_205
*1111 FILLER_0_34_209
*1112 FILLER_0_34_224
*1113 FILLER_0_34_228
*1114 FILLER_0_34_235
*1115 FILLER_0_34_243
*1116 FILLER_0_34_27
*1117 FILLER_0_34_29
*1118 FILLER_0_34_3
*1119 FILLER_0_34_303
*1120 FILLER_0_34_307
*1121 FILLER_0_34_309
*1122 FILLER_0_34_315
*1123 FILLER_0_34_321
*1124 FILLER_0_34_333
*1125 FILLER_0_34_41
*1126 FILLER_0_34_53
*1127 FILLER_0_34_65
*1128 FILLER_0_34_77
*1129 FILLER_0_34_83
*1130 FILLER_0_34_85
*1131 FILLER_0_34_97
*1132 FILLER_0_35_105
*1133 FILLER_0_35_111
*1134 FILLER_0_35_113
*1135 FILLER_0_35_125
*1136 FILLER_0_35_137
*1137 FILLER_0_35_145
*1138 FILLER_0_35_15
*1139 FILLER_0_35_153
*1140 FILLER_0_35_165
*1141 FILLER_0_35_201
*1142 FILLER_0_35_249
*1143 FILLER_0_35_27
*1144 FILLER_0_35_279
*1145 FILLER_0_35_290
*1146 FILLER_0_35_3
*1147 FILLER_0_35_313
*1148 FILLER_0_35_331
*1149 FILLER_0_35_335
*1150 FILLER_0_35_337
*1151 FILLER_0_35_39
*1152 FILLER_0_35_51
*1153 FILLER_0_35_55
*1154 FILLER_0_35_57
*1155 FILLER_0_35_69
*1156 FILLER_0_35_81
*1157 FILLER_0_35_93
*1158 FILLER_0_36_100
*1159 FILLER_0_36_104
*1160 FILLER_0_36_108
*1161 FILLER_0_36_113
*1162 FILLER_0_36_12
*1163 FILLER_0_36_120
*1164 FILLER_0_36_124
*1165 FILLER_0_36_128
*1166 FILLER_0_36_136
*1167 FILLER_0_36_147
*1168 FILLER_0_36_155
*1169 FILLER_0_36_16
*1170 FILLER_0_36_160
*1171 FILLER_0_36_164
*1172 FILLER_0_36_169
*1173 FILLER_0_36_191
*1174 FILLER_0_36_195
*1175 FILLER_0_36_20
*1176 FILLER_0_36_203
*1177 FILLER_0_36_207
*1178 FILLER_0_36_225
*1179 FILLER_0_36_24
*1180 FILLER_0_36_240
*1181 FILLER_0_36_248
*1182 FILLER_0_36_253
*1183 FILLER_0_36_271
*1184 FILLER_0_36_3
*1185 FILLER_0_36_32
*1186 FILLER_0_36_334
*1187 FILLER_0_36_337
*1188 FILLER_0_36_36
*1189 FILLER_0_36_40
*1190 FILLER_0_36_44
*1191 FILLER_0_36_48
*1192 FILLER_0_36_52
*1193 FILLER_0_36_57
*1194 FILLER_0_36_64
*1195 FILLER_0_36_68
*1196 FILLER_0_36_72
*1197 FILLER_0_36_76
*1198 FILLER_0_36_8
*1199 FILLER_0_36_80
*1200 FILLER_0_36_88
*1201 FILLER_0_36_92
*1202 FILLER_0_36_96
*1203 FILLER_0_3_105
*1204 FILLER_0_3_111
*1205 FILLER_0_3_113
*1206 FILLER_0_3_125
*1207 FILLER_0_3_137
*1208 FILLER_0_3_149
*1209 FILLER_0_3_15
*1210 FILLER_0_3_161
*1211 FILLER_0_3_167
*1212 FILLER_0_3_169
*1213 FILLER_0_3_181
*1214 FILLER_0_3_193
*1215 FILLER_0_3_205
*1216 FILLER_0_3_217
*1217 FILLER_0_3_223
*1218 FILLER_0_3_225
*1219 FILLER_0_3_237
*1220 FILLER_0_3_249
*1221 FILLER_0_3_261
*1222 FILLER_0_3_27
*1223 FILLER_0_3_273
*1224 FILLER_0_3_279
*1225 FILLER_0_3_281
*1226 FILLER_0_3_293
*1227 FILLER_0_3_3
*1228 FILLER_0_3_305
*1229 FILLER_0_3_317
*1230 FILLER_0_3_329
*1231 FILLER_0_3_335
*1232 FILLER_0_3_337
*1233 FILLER_0_3_39
*1234 FILLER_0_3_51
*1235 FILLER_0_3_55
*1236 FILLER_0_3_57
*1237 FILLER_0_3_69
*1238 FILLER_0_3_81
*1239 FILLER_0_3_93
*1240 FILLER_0_4_109
*1241 FILLER_0_4_121
*1242 FILLER_0_4_133
*1243 FILLER_0_4_139
*1244 FILLER_0_4_141
*1245 FILLER_0_4_15
*1246 FILLER_0_4_153
*1247 FILLER_0_4_165
*1248 FILLER_0_4_177
*1249 FILLER_0_4_189
*1250 FILLER_0_4_195
*1251 FILLER_0_4_197
*1252 FILLER_0_4_209
*1253 FILLER_0_4_221
*1254 FILLER_0_4_233
*1255 FILLER_0_4_245
*1256 FILLER_0_4_251
*1257 FILLER_0_4_253
*1258 FILLER_0_4_265
*1259 FILLER_0_4_27
*1260 FILLER_0_4_277
*1261 FILLER_0_4_289
*1262 FILLER_0_4_29
*1263 FILLER_0_4_3
*1264 FILLER_0_4_301
*1265 FILLER_0_4_307
*1266 FILLER_0_4_309
*1267 FILLER_0_4_321
*1268 FILLER_0_4_333
*1269 FILLER_0_4_41
*1270 FILLER_0_4_53
*1271 FILLER_0_4_65
*1272 FILLER_0_4_77
*1273 FILLER_0_4_83
*1274 FILLER_0_4_85
*1275 FILLER_0_4_97
*1276 FILLER_0_5_105
*1277 FILLER_0_5_111
*1278 FILLER_0_5_113
*1279 FILLER_0_5_125
*1280 FILLER_0_5_137
*1281 FILLER_0_5_149
*1282 FILLER_0_5_15
*1283 FILLER_0_5_161
*1284 FILLER_0_5_167
*1285 FILLER_0_5_169
*1286 FILLER_0_5_181
*1287 FILLER_0_5_193
*1288 FILLER_0_5_205
*1289 FILLER_0_5_217
*1290 FILLER_0_5_223
*1291 FILLER_0_5_225
*1292 FILLER_0_5_237
*1293 FILLER_0_5_249
*1294 FILLER_0_5_261
*1295 FILLER_0_5_27
*1296 FILLER_0_5_273
*1297 FILLER_0_5_279
*1298 FILLER_0_5_281
*1299 FILLER_0_5_293
*1300 FILLER_0_5_3
*1301 FILLER_0_5_305
*1302 FILLER_0_5_317
*1303 FILLER_0_5_329
*1304 FILLER_0_5_335
*1305 FILLER_0_5_337
*1306 FILLER_0_5_39
*1307 FILLER_0_5_51
*1308 FILLER_0_5_55
*1309 FILLER_0_5_57
*1310 FILLER_0_5_69
*1311 FILLER_0_5_81
*1312 FILLER_0_5_93
*1313 FILLER_0_6_109
*1314 FILLER_0_6_121
*1315 FILLER_0_6_133
*1316 FILLER_0_6_139
*1317 FILLER_0_6_141
*1318 FILLER_0_6_15
*1319 FILLER_0_6_153
*1320 FILLER_0_6_165
*1321 FILLER_0_6_177
*1322 FILLER_0_6_189
*1323 FILLER_0_6_195
*1324 FILLER_0_6_197
*1325 FILLER_0_6_209
*1326 FILLER_0_6_221
*1327 FILLER_0_6_233
*1328 FILLER_0_6_245
*1329 FILLER_0_6_251
*1330 FILLER_0_6_253
*1331 FILLER_0_6_265
*1332 FILLER_0_6_27
*1333 FILLER_0_6_277
*1334 FILLER_0_6_289
*1335 FILLER_0_6_29
*1336 FILLER_0_6_3
*1337 FILLER_0_6_301
*1338 FILLER_0_6_307
*1339 FILLER_0_6_309
*1340 FILLER_0_6_321
*1341 FILLER_0_6_333
*1342 FILLER_0_6_41
*1343 FILLER_0_6_53
*1344 FILLER_0_6_65
*1345 FILLER_0_6_77
*1346 FILLER_0_6_83
*1347 FILLER_0_6_85
*1348 FILLER_0_6_97
*1349 FILLER_0_7_105
*1350 FILLER_0_7_111
*1351 FILLER_0_7_113
*1352 FILLER_0_7_125
*1353 FILLER_0_7_137
*1354 FILLER_0_7_149
*1355 FILLER_0_7_15
*1356 FILLER_0_7_161
*1357 FILLER_0_7_167
*1358 FILLER_0_7_169
*1359 FILLER_0_7_181
*1360 FILLER_0_7_193
*1361 FILLER_0_7_205
*1362 FILLER_0_7_217
*1363 FILLER_0_7_223
*1364 FILLER_0_7_225
*1365 FILLER_0_7_237
*1366 FILLER_0_7_249
*1367 FILLER_0_7_261
*1368 FILLER_0_7_27
*1369 FILLER_0_7_273
*1370 FILLER_0_7_279
*1371 FILLER_0_7_281
*1372 FILLER_0_7_293
*1373 FILLER_0_7_3
*1374 FILLER_0_7_305
*1375 FILLER_0_7_317
*1376 FILLER_0_7_329
*1377 FILLER_0_7_335
*1378 FILLER_0_7_337
*1379 FILLER_0_7_39
*1380 FILLER_0_7_51
*1381 FILLER_0_7_55
*1382 FILLER_0_7_57
*1383 FILLER_0_7_69
*1384 FILLER_0_7_81
*1385 FILLER_0_7_93
*1386 FILLER_0_8_109
*1387 FILLER_0_8_121
*1388 FILLER_0_8_133
*1389 FILLER_0_8_139
*1390 FILLER_0_8_141
*1391 FILLER_0_8_15
*1392 FILLER_0_8_153
*1393 FILLER_0_8_165
*1394 FILLER_0_8_177
*1395 FILLER_0_8_189
*1396 FILLER_0_8_195
*1397 FILLER_0_8_197
*1398 FILLER_0_8_209
*1399 FILLER_0_8_221
*1400 FILLER_0_8_233
*1401 FILLER_0_8_245
*1402 FILLER_0_8_251
*1403 FILLER_0_8_253
*1404 FILLER_0_8_265
*1405 FILLER_0_8_27
*1406 FILLER_0_8_277
*1407 FILLER_0_8_289
*1408 FILLER_0_8_29
*1409 FILLER_0_8_3
*1410 FILLER_0_8_301
*1411 FILLER_0_8_307
*1412 FILLER_0_8_309
*1413 FILLER_0_8_321
*1414 FILLER_0_8_333
*1415 FILLER_0_8_41
*1416 FILLER_0_8_53
*1417 FILLER_0_8_65
*1418 FILLER_0_8_77
*1419 FILLER_0_8_83
*1420 FILLER_0_8_85
*1421 FILLER_0_8_97
*1422 FILLER_0_9_105
*1423 FILLER_0_9_111
*1424 FILLER_0_9_113
*1425 FILLER_0_9_125
*1426 FILLER_0_9_137
*1427 FILLER_0_9_149
*1428 FILLER_0_9_15
*1429 FILLER_0_9_161
*1430 FILLER_0_9_167
*1431 FILLER_0_9_169
*1432 FILLER_0_9_181
*1433 FILLER_0_9_193
*1434 FILLER_0_9_205
*1435 FILLER_0_9_217
*1436 FILLER_0_9_223
*1437 FILLER_0_9_225
*1438 FILLER_0_9_237
*1439 FILLER_0_9_249
*1440 FILLER_0_9_261
*1441 FILLER_0_9_27
*1442 FILLER_0_9_273
*1443 FILLER_0_9_279
*1444 FILLER_0_9_281
*1445 FILLER_0_9_293
*1446 FILLER_0_9_3
*1447 FILLER_0_9_305
*1448 FILLER_0_9_317
*1449 FILLER_0_9_329
*1450 FILLER_0_9_335
*1451 FILLER_0_9_337
*1452 FILLER_0_9_39
*1453 FILLER_0_9_51
*1454 FILLER_0_9_55
*1455 FILLER_0_9_57
*1456 FILLER_0_9_69
*1457 FILLER_0_9_81
*1458 FILLER_0_9_93
*1459 PHY_0
*1460 PHY_1
*1461 PHY_10
*1462 PHY_11
*1463 PHY_12
*1464 PHY_13
*1465 PHY_14
*1466 PHY_15
*1467 PHY_16
*1468 PHY_17
*1469 PHY_18
*1470 PHY_19
*1471 PHY_2
*1472 PHY_20
*1473 PHY_21
*1474 PHY_22
*1475 PHY_23
*1476 PHY_24
*1477 PHY_25
*1478 PHY_26
*1479 PHY_27
*1480 PHY_28
*1481 PHY_29
*1482 PHY_3
*1483 PHY_30
*1484 PHY_31
*1485 PHY_32
*1486 PHY_33
*1487 PHY_34
*1488 PHY_35
*1489 PHY_36
*1490 PHY_37
*1491 PHY_38
*1492 PHY_39
*1493 PHY_4
*1494 PHY_40
*1495 PHY_41
*1496 PHY_42
*1497 PHY_43
*1498 PHY_44
*1499 PHY_45
*1500 PHY_46
*1501 PHY_47
*1502 PHY_48
*1503 PHY_49
*1504 PHY_5
*1505 PHY_50