*SPEF "ieee 1481-1999"
*DESIGN "tt_um_wokwi_347140425276981843"
*DATE "11:11:11 Fri 11 11, 1111"
*VENDOR "OpenRCX"
*PROGRAM "Parallel Extraction"
*VERSION "1.0"
*DESIGN_FLOW "NAME_SCOPE LOCAL" "PIN_CAP NONE"
*DIVIDER /
*DELIMITER :
*BUS_DELIMITER []
*T_UNIT 1 NS
*C_UNIT 1 PF
*R_UNIT 1 OHM
*L_UNIT 1 HENRY

*NAME_MAP
*3 clk
*4 ena
*5 rst_n
*6 ui_in[0]
*7 ui_in[1]
*8 ui_in[2]
*9 ui_in[3]
*10 ui_in[4]
*11 ui_in[5]
*12 ui_in[6]
*13 ui_in[7]
*14 uio_in[0]
*15 uio_in[1]
*16 uio_in[2]
*17 uio_in[3]
*18 uio_in[4]
*19 uio_in[5]
*20 uio_in[6]
*21 uio_in[7]
*22 net8
*23 net9
*24 net10
*25 net11
*26 net12
*27 net13
*28 net14
*29 net15
*30 net16
*31 net17
*32 net18
*33 net19
*34 net20
*35 net21
*36 net22
*37 net23
*38 uo_out[0]
*39 net24
*40 net25
*41 net26
*42 net27
*43 uo_out[5]
*44 net28
*45 uo_out[7]
*46 _000_
*47 _001_
*48 _002_
*49 _003_
*50 _004_
*51 _005_
*52 _006_
*53 _007_
*54 _008_
*55 _009_
*56 _010_
*57 _011_
*58 _012_
*59 _013_
*60 _014_
*61 _015_
*62 _016_
*63 _017_
*64 _018_
*65 _019_
*66 _020_
*67 _021_
*68 _022_
*69 _023_
*70 _024_
*71 _025_
*72 _026_
*73 _027_
*74 _028_
*75 _029_
*76 clknet_0_clk
*77 clknet_1_0__leaf_clk
*78 clknet_1_1__leaf_clk
*79 flop1\.q
*80 flop10\.d
*81 flop10\.q
*82 flop11\.d
*83 flop11\.q
*84 flop12\.q
*85 flop13\.q
*86 flop14\.q
*87 flop15\.q
*88 flop16\.q
*89 flop17\.q
*90 flop18\.q
*91 flop3\.q
*92 flop4\.q
*93 flop5\.q
*94 flop6\.q
*95 flop7\.d
*96 flop7\.q
*97 flop8\.d
*98 flop8\.q
*99 flop9\.d
*100 flop9\.q
*101 mux18\.b
*102 net1
*103 net2
*104 net29
*105 net3
*106 net30
*107 net31
*108 net32
*109 net33
*110 net34
*111 net35
*112 net36
*113 net37
*114 net38
*115 net39
*116 net4
*117 net40
*118 net41
*119 net42
*120 net43
*121 net44
*122 net45
*123 net5
*124 net6
*125 net7
*126 FILLER_0_0_109
*127 FILLER_0_0_113
*128 FILLER_0_0_125
*129 FILLER_0_0_137
*130 FILLER_0_0_141
*131 FILLER_0_0_15
*132 FILLER_0_0_153
*133 FILLER_0_0_165
*134 FILLER_0_0_169
*135 FILLER_0_0_181
*136 FILLER_0_0_193
*137 FILLER_0_0_197
*138 FILLER_0_0_209
*139 FILLER_0_0_221
*140 FILLER_0_0_225
*141 FILLER_0_0_237
*142 FILLER_0_0_249
*143 FILLER_0_0_253
*144 FILLER_0_0_265
*145 FILLER_0_0_27
*146 FILLER_0_0_277
*147 FILLER_0_0_281
*148 FILLER_0_0_29
*149 FILLER_0_0_293
*150 FILLER_0_0_3
*151 FILLER_0_0_305
*152 FILLER_0_0_309
*153 FILLER_0_0_321
*154 FILLER_0_0_333
*155 FILLER_0_0_337
*156 FILLER_0_0_349
*157 FILLER_0_0_41
*158 FILLER_0_0_53
*159 FILLER_0_0_57
*160 FILLER_0_0_69
*161 FILLER_0_0_81
*162 FILLER_0_0_85
*163 FILLER_0_0_97
*164 FILLER_0_10_109
*165 FILLER_0_10_121
*166 FILLER_0_10_133
*167 FILLER_0_10_139
*168 FILLER_0_10_141
*169 FILLER_0_10_15
*170 FILLER_0_10_153
*171 FILLER_0_10_165
*172 FILLER_0_10_177
*173 FILLER_0_10_189
*174 FILLER_0_10_195
*175 FILLER_0_10_197
*176 FILLER_0_10_209
*177 FILLER_0_10_221
*178 FILLER_0_10_233
*179 FILLER_0_10_245
*180 FILLER_0_10_251
*181 FILLER_0_10_253
*182 FILLER_0_10_265
*183 FILLER_0_10_27
*184 FILLER_0_10_277
*185 FILLER_0_10_289
*186 FILLER_0_10_29
*187 FILLER_0_10_3
*188 FILLER_0_10_301
*189 FILLER_0_10_307
*190 FILLER_0_10_309
*191 FILLER_0_10_321
*192 FILLER_0_10_333
*193 FILLER_0_10_345
*194 FILLER_0_10_41
*195 FILLER_0_10_53
*196 FILLER_0_10_65
*197 FILLER_0_10_77
*198 FILLER_0_10_83
*199 FILLER_0_10_85
*200 FILLER_0_10_97
*201 FILLER_0_11_105
*202 FILLER_0_11_111
*203 FILLER_0_11_113
*204 FILLER_0_11_125
*205 FILLER_0_11_137
*206 FILLER_0_11_149
*207 FILLER_0_11_15
*208 FILLER_0_11_161
*209 FILLER_0_11_167
*210 FILLER_0_11_169
*211 FILLER_0_11_181
*212 FILLER_0_11_193
*213 FILLER_0_11_205
*214 FILLER_0_11_217
*215 FILLER_0_11_223
*216 FILLER_0_11_225
*217 FILLER_0_11_237
*218 FILLER_0_11_249
*219 FILLER_0_11_261
*220 FILLER_0_11_27
*221 FILLER_0_11_273
*222 FILLER_0_11_279
*223 FILLER_0_11_281
*224 FILLER_0_11_293
*225 FILLER_0_11_3
*226 FILLER_0_11_305
*227 FILLER_0_11_317
*228 FILLER_0_11_329
*229 FILLER_0_11_335
*230 FILLER_0_11_337
*231 FILLER_0_11_349
*232 FILLER_0_11_39
*233 FILLER_0_11_51
*234 FILLER_0_11_55
*235 FILLER_0_11_57
*236 FILLER_0_11_69
*237 FILLER_0_11_81
*238 FILLER_0_11_93
*239 FILLER_0_12_109
*240 FILLER_0_12_121
*241 FILLER_0_12_133
*242 FILLER_0_12_139
*243 FILLER_0_12_141
*244 FILLER_0_12_15
*245 FILLER_0_12_153
*246 FILLER_0_12_165
*247 FILLER_0_12_177
*248 FILLER_0_12_189
*249 FILLER_0_12_195
*250 FILLER_0_12_197
*251 FILLER_0_12_209
*252 FILLER_0_12_221
*253 FILLER_0_12_233
*254 FILLER_0_12_245
*255 FILLER_0_12_251
*256 FILLER_0_12_253
*257 FILLER_0_12_265
*258 FILLER_0_12_27
*259 FILLER_0_12_277
*260 FILLER_0_12_289
*261 FILLER_0_12_29
*262 FILLER_0_12_3
*263 FILLER_0_12_301
*264 FILLER_0_12_307
*265 FILLER_0_12_309
*266 FILLER_0_12_321
*267 FILLER_0_12_333
*268 FILLER_0_12_345
*269 FILLER_0_12_41
*270 FILLER_0_12_53
*271 FILLER_0_12_65
*272 FILLER_0_12_77
*273 FILLER_0_12_83
*274 FILLER_0_12_85
*275 FILLER_0_12_97
*276 FILLER_0_13_105
*277 FILLER_0_13_111
*278 FILLER_0_13_113
*279 FILLER_0_13_125
*280 FILLER_0_13_137
*281 FILLER_0_13_149
*282 FILLER_0_13_15
*283 FILLER_0_13_161
*284 FILLER_0_13_167
*285 FILLER_0_13_169
*286 FILLER_0_13_181
*287 FILLER_0_13_193
*288 FILLER_0_13_205
*289 FILLER_0_13_217
*290 FILLER_0_13_223
*291 FILLER_0_13_225
*292 FILLER_0_13_237
*293 FILLER_0_13_249
*294 FILLER_0_13_261
*295 FILLER_0_13_27
*296 FILLER_0_13_273
*297 FILLER_0_13_279
*298 FILLER_0_13_281
*299 FILLER_0_13_293
*300 FILLER_0_13_3
*301 FILLER_0_13_305
*302 FILLER_0_13_317
*303 FILLER_0_13_329
*304 FILLER_0_13_335
*305 FILLER_0_13_337
*306 FILLER_0_13_349
*307 FILLER_0_13_39
*308 FILLER_0_13_51
*309 FILLER_0_13_55
*310 FILLER_0_13_57
*311 FILLER_0_13_69
*312 FILLER_0_13_81
*313 FILLER_0_13_93
*314 FILLER_0_14_109
*315 FILLER_0_14_121
*316 FILLER_0_14_133
*317 FILLER_0_14_139
*318 FILLER_0_14_141
*319 FILLER_0_14_15
*320 FILLER_0_14_153
*321 FILLER_0_14_165
*322 FILLER_0_14_177
*323 FILLER_0_14_189
*324 FILLER_0_14_195
*325 FILLER_0_14_197
*326 FILLER_0_14_209
*327 FILLER_0_14_221
*328 FILLER_0_14_233
*329 FILLER_0_14_245
*330 FILLER_0_14_251
*331 FILLER_0_14_253
*332 FILLER_0_14_265
*333 FILLER_0_14_27
*334 FILLER_0_14_277
*335 FILLER_0_14_289
*336 FILLER_0_14_29
*337 FILLER_0_14_3
*338 FILLER_0_14_301
*339 FILLER_0_14_307
*340 FILLER_0_14_309
*341 FILLER_0_14_321
*342 FILLER_0_14_333
*343 FILLER_0_14_345
*344 FILLER_0_14_41
*345 FILLER_0_14_53
*346 FILLER_0_14_65
*347 FILLER_0_14_77
*348 FILLER_0_14_83
*349 FILLER_0_14_85
*350 FILLER_0_14_97
*351 FILLER_0_15_105
*352 FILLER_0_15_111
*353 FILLER_0_15_113
*354 FILLER_0_15_125
*355 FILLER_0_15_137
*356 FILLER_0_15_149
*357 FILLER_0_15_15
*358 FILLER_0_15_161
*359 FILLER_0_15_167
*360 FILLER_0_15_169
*361 FILLER_0_15_181
*362 FILLER_0_15_193
*363 FILLER_0_15_205
*364 FILLER_0_15_217
*365 FILLER_0_15_223
*366 FILLER_0_15_225
*367 FILLER_0_15_237
*368 FILLER_0_15_249
*369 FILLER_0_15_261
*370 FILLER_0_15_27
*371 FILLER_0_15_273
*372 FILLER_0_15_279
*373 FILLER_0_15_281
*374 FILLER_0_15_293
*375 FILLER_0_15_3
*376 FILLER_0_15_305
*377 FILLER_0_15_317
*378 FILLER_0_15_329
*379 FILLER_0_15_335
*380 FILLER_0_15_337
*381 FILLER_0_15_349
*382 FILLER_0_15_39
*383 FILLER_0_15_51
*384 FILLER_0_15_55
*385 FILLER_0_15_57
*386 FILLER_0_15_69
*387 FILLER_0_15_81
*388 FILLER_0_15_93
*389 FILLER_0_16_109
*390 FILLER_0_16_121
*391 FILLER_0_16_133
*392 FILLER_0_16_139
*393 FILLER_0_16_141
*394 FILLER_0_16_15
*395 FILLER_0_16_153
*396 FILLER_0_16_165
*397 FILLER_0_16_177
*398 FILLER_0_16_189
*399 FILLER_0_16_195
*400 FILLER_0_16_197
*401 FILLER_0_16_209
*402 FILLER_0_16_221
*403 FILLER_0_16_233
*404 FILLER_0_16_245
*405 FILLER_0_16_251
*406 FILLER_0_16_253
*407 FILLER_0_16_265
*408 FILLER_0_16_27
*409 FILLER_0_16_277
*410 FILLER_0_16_289
*411 FILLER_0_16_29
*412 FILLER_0_16_3
*413 FILLER_0_16_301
*414 FILLER_0_16_307
*415 FILLER_0_16_309
*416 FILLER_0_16_321
*417 FILLER_0_16_333
*418 FILLER_0_16_345
*419 FILLER_0_16_41
*420 FILLER_0_16_53
*421 FILLER_0_16_65
*422 FILLER_0_16_77
*423 FILLER_0_16_83
*424 FILLER_0_16_85
*425 FILLER_0_16_97
*426 FILLER_0_17_105
*427 FILLER_0_17_111
*428 FILLER_0_17_113
*429 FILLER_0_17_125
*430 FILLER_0_17_137
*431 FILLER_0_17_149
*432 FILLER_0_17_15
*433 FILLER_0_17_161
*434 FILLER_0_17_167
*435 FILLER_0_17_169
*436 FILLER_0_17_181
*437 FILLER_0_17_193
*438 FILLER_0_17_205
*439 FILLER_0_17_217
*440 FILLER_0_17_223
*441 FILLER_0_17_225
*442 FILLER_0_17_237
*443 FILLER_0_17_249
*444 FILLER_0_17_261
*445 FILLER_0_17_27
*446 FILLER_0_17_273
*447 FILLER_0_17_279
*448 FILLER_0_17_281
*449 FILLER_0_17_293
*450 FILLER_0_17_3
*451 FILLER_0_17_305
*452 FILLER_0_17_317
*453 FILLER_0_17_329
*454 FILLER_0_17_335
*455 FILLER_0_17_337
*456 FILLER_0_17_349
*457 FILLER_0_17_39
*458 FILLER_0_17_51
*459 FILLER_0_17_55
*460 FILLER_0_17_57
*461 FILLER_0_17_69
*462 FILLER_0_17_81
*463 FILLER_0_17_93
*464 FILLER_0_18_109
*465 FILLER_0_18_121
*466 FILLER_0_18_133
*467 FILLER_0_18_139
*468 FILLER_0_18_141
*469 FILLER_0_18_15
*470 FILLER_0_18_153
*471 FILLER_0_18_165
*472 FILLER_0_18_177
*473 FILLER_0_18_189
*474 FILLER_0_18_195
*475 FILLER_0_18_197
*476 FILLER_0_18_209
*477 FILLER_0_18_221
*478 FILLER_0_18_233
*479 FILLER_0_18_245
*480 FILLER_0_18_251
*481 FILLER_0_18_253
*482 FILLER_0_18_265
*483 FILLER_0_18_27
*484 FILLER_0_18_277
*485 FILLER_0_18_289
*486 FILLER_0_18_29
*487 FILLER_0_18_3
*488 FILLER_0_18_301
*489 FILLER_0_18_307
*490 FILLER_0_18_309
*491 FILLER_0_18_321
*492 FILLER_0_18_333
*493 FILLER_0_18_345
*494 FILLER_0_18_41
*495 FILLER_0_18_53
*496 FILLER_0_18_65
*497 FILLER_0_18_77
*498 FILLER_0_18_83
*499 FILLER_0_18_85
*500 FILLER_0_18_97
*501 FILLER_0_19_105
*502 FILLER_0_19_111
*503 FILLER_0_19_113
*504 FILLER_0_19_125
*505 FILLER_0_19_137
*506 FILLER_0_19_149
*507 FILLER_0_19_15
*508 FILLER_0_19_161
*509 FILLER_0_19_167
*510 FILLER_0_19_169
*511 FILLER_0_19_181
*512 FILLER_0_19_193
*513 FILLER_0_19_205
*514 FILLER_0_19_217
*515 FILLER_0_19_223
*516 FILLER_0_19_225
*517 FILLER_0_19_237
*518 FILLER_0_19_249
*519 FILLER_0_19_261
*520 FILLER_0_19_27
*521 FILLER_0_19_273
*522 FILLER_0_19_279
*523 FILLER_0_19_281
*524 FILLER_0_19_293
*525 FILLER_0_19_3
*526 FILLER_0_19_305
*527 FILLER_0_19_317
*528 FILLER_0_19_329
*529 FILLER_0_19_335
*530 FILLER_0_19_337
*531 FILLER_0_19_349
*532 FILLER_0_19_39
*533 FILLER_0_19_51
*534 FILLER_0_19_55
*535 FILLER_0_19_57
*536 FILLER_0_19_69
*537 FILLER_0_19_81
*538 FILLER_0_19_93
*539 FILLER_0_1_105
*540 FILLER_0_1_111
*541 FILLER_0_1_113
*542 FILLER_0_1_125
*543 FILLER_0_1_137
*544 FILLER_0_1_149
*545 FILLER_0_1_15
*546 FILLER_0_1_161
*547 FILLER_0_1_167
*548 FILLER_0_1_169
*549 FILLER_0_1_181
*550 FILLER_0_1_193
*551 FILLER_0_1_205
*552 FILLER_0_1_217
*553 FILLER_0_1_223
*554 FILLER_0_1_225
*555 FILLER_0_1_237
*556 FILLER_0_1_249
*557 FILLER_0_1_261
*558 FILLER_0_1_27
*559 FILLER_0_1_273
*560 FILLER_0_1_279
*561 FILLER_0_1_281
*562 FILLER_0_1_293
*563 FILLER_0_1_3
*564 FILLER_0_1_305
*565 FILLER_0_1_317
*566 FILLER_0_1_329
*567 FILLER_0_1_335
*568 FILLER_0_1_337
*569 FILLER_0_1_349
*570 FILLER_0_1_39
*571 FILLER_0_1_51
*572 FILLER_0_1_55
*573 FILLER_0_1_57
*574 FILLER_0_1_69
*575 FILLER_0_1_81
*576 FILLER_0_1_93
*577 FILLER_0_20_109
*578 FILLER_0_20_121
*579 FILLER_0_20_133
*580 FILLER_0_20_139
*581 FILLER_0_20_141
*582 FILLER_0_20_15
*583 FILLER_0_20_153
*584 FILLER_0_20_165
*585 FILLER_0_20_177
*586 FILLER_0_20_189
*587 FILLER_0_20_195
*588 FILLER_0_20_197
*589 FILLER_0_20_209
*590 FILLER_0_20_221
*591 FILLER_0_20_233
*592 FILLER_0_20_245
*593 FILLER_0_20_251
*594 FILLER_0_20_253
*595 FILLER_0_20_265
*596 FILLER_0_20_27
*597 FILLER_0_20_277
*598 FILLER_0_20_289
*599 FILLER_0_20_29
*600 FILLER_0_20_3
*601 FILLER_0_20_301
*602 FILLER_0_20_307
*603 FILLER_0_20_309
*604 FILLER_0_20_321
*605 FILLER_0_20_333
*606 FILLER_0_20_345
*607 FILLER_0_20_41
*608 FILLER_0_20_53
*609 FILLER_0_20_65
*610 FILLER_0_20_77
*611 FILLER_0_20_83
*612 FILLER_0_20_85
*613 FILLER_0_20_97
*614 FILLER_0_21_105
*615 FILLER_0_21_111
*616 FILLER_0_21_113
*617 FILLER_0_21_125
*618 FILLER_0_21_137
*619 FILLER_0_21_149
*620 FILLER_0_21_15
*621 FILLER_0_21_161
*622 FILLER_0_21_167
*623 FILLER_0_21_169
*624 FILLER_0_21_181
*625 FILLER_0_21_193
*626 FILLER_0_21_205
*627 FILLER_0_21_217
*628 FILLER_0_21_223
*629 FILLER_0_21_225
*630 FILLER_0_21_237
*631 FILLER_0_21_249
*632 FILLER_0_21_261
*633 FILLER_0_21_27
*634 FILLER_0_21_273
*635 FILLER_0_21_279
*636 FILLER_0_21_281
*637 FILLER_0_21_293
*638 FILLER_0_21_3
*639 FILLER_0_21_305
*640 FILLER_0_21_317
*641 FILLER_0_21_329
*642 FILLER_0_21_335
*643 FILLER_0_21_337
*644 FILLER_0_21_349
*645 FILLER_0_21_39
*646 FILLER_0_21_51
*647 FILLER_0_21_55
*648 FILLER_0_21_57
*649 FILLER_0_21_69
*650 FILLER_0_21_81
*651 FILLER_0_21_93
*652 FILLER_0_22_109
*653 FILLER_0_22_121
*654 FILLER_0_22_133
*655 FILLER_0_22_139
*656 FILLER_0_22_141
*657 FILLER_0_22_15
*658 FILLER_0_22_153
*659 FILLER_0_22_165
*660 FILLER_0_22_177
*661 FILLER_0_22_189
*662 FILLER_0_22_195
*663 FILLER_0_22_197
*664 FILLER_0_22_209
*665 FILLER_0_22_221
*666 FILLER_0_22_233
*667 FILLER_0_22_245
*668 FILLER_0_22_251
*669 FILLER_0_22_253
*670 FILLER_0_22_265
*671 FILLER_0_22_27
*672 FILLER_0_22_277
*673 FILLER_0_22_289
*674 FILLER_0_22_29
*675 FILLER_0_22_3
*676 FILLER_0_22_301
*677 FILLER_0_22_307
*678 FILLER_0_22_309
*679 FILLER_0_22_321
*680 FILLER_0_22_333
*681 FILLER_0_22_345
*682 FILLER_0_22_41
*683 FILLER_0_22_53
*684 FILLER_0_22_65
*685 FILLER_0_22_77
*686 FILLER_0_22_83
*687 FILLER_0_22_85
*688 FILLER_0_22_97
*689 FILLER_0_23_105
*690 FILLER_0_23_111
*691 FILLER_0_23_113
*692 FILLER_0_23_125
*693 FILLER_0_23_137
*694 FILLER_0_23_149
*695 FILLER_0_23_15
*696 FILLER_0_23_161
*697 FILLER_0_23_167
*698 FILLER_0_23_169
*699 FILLER_0_23_181
*700 FILLER_0_23_193
*701 FILLER_0_23_205
*702 FILLER_0_23_217
*703 FILLER_0_23_223
*704 FILLER_0_23_225
*705 FILLER_0_23_237
*706 FILLER_0_23_249
*707 FILLER_0_23_261
*708 FILLER_0_23_27
*709 FILLER_0_23_273
*710 FILLER_0_23_279
*711 FILLER_0_23_281
*712 FILLER_0_23_293
*713 FILLER_0_23_3
*714 FILLER_0_23_305
*715 FILLER_0_23_317
*716 FILLER_0_23_329
*717 FILLER_0_23_335
*718 FILLER_0_23_337
*719 FILLER_0_23_349
*720 FILLER_0_23_39
*721 FILLER_0_23_51
*722 FILLER_0_23_55
*723 FILLER_0_23_57
*724 FILLER_0_23_69
*725 FILLER_0_23_81
*726 FILLER_0_23_93
*727 FILLER_0_24_109
*728 FILLER_0_24_121
*729 FILLER_0_24_133
*730 FILLER_0_24_139
*731 FILLER_0_24_141
*732 FILLER_0_24_15
*733 FILLER_0_24_153
*734 FILLER_0_24_165
*735 FILLER_0_24_177
*736 FILLER_0_24_189
*737 FILLER_0_24_195
*738 FILLER_0_24_197
*739 FILLER_0_24_209
*740 FILLER_0_24_221
*741 FILLER_0_24_233
*742 FILLER_0_24_245
*743 FILLER_0_24_251
*744 FILLER_0_24_253
*745 FILLER_0_24_265
*746 FILLER_0_24_27
*747 FILLER_0_24_277
*748 FILLER_0_24_289
*749 FILLER_0_24_29
*750 FILLER_0_24_3
*751 FILLER_0_24_301
*752 FILLER_0_24_307
*753 FILLER_0_24_309
*754 FILLER_0_24_321
*755 FILLER_0_24_333
*756 FILLER_0_24_345
*757 FILLER_0_24_41
*758 FILLER_0_24_53
*759 FILLER_0_24_65
*760 FILLER_0_24_77
*761 FILLER_0_24_83
*762 FILLER_0_24_85
*763 FILLER_0_24_97
*764 FILLER_0_25_105
*765 FILLER_0_25_111
*766 FILLER_0_25_113
*767 FILLER_0_25_125
*768 FILLER_0_25_137
*769 FILLER_0_25_149
*770 FILLER_0_25_15
*771 FILLER_0_25_161
*772 FILLER_0_25_167
*773 FILLER_0_25_169
*774 FILLER_0_25_181
*775 FILLER_0_25_193
*776 FILLER_0_25_205
*777 FILLER_0_25_217
*778 FILLER_0_25_223
*779 FILLER_0_25_225
*780 FILLER_0_25_237
*781 FILLER_0_25_249
*782 FILLER_0_25_261
*783 FILLER_0_25_27
*784 FILLER_0_25_273
*785 FILLER_0_25_279
*786 FILLER_0_25_281
*787 FILLER_0_25_293
*788 FILLER_0_25_3
*789 FILLER_0_25_305
*790 FILLER_0_25_317
*791 FILLER_0_25_329
*792 FILLER_0_25_335
*793 FILLER_0_25_337
*794 FILLER_0_25_349
*795 FILLER_0_25_39
*796 FILLER_0_25_51
*797 FILLER_0_25_55
*798 FILLER_0_25_57
*799 FILLER_0_25_69
*800 FILLER_0_25_81
*801 FILLER_0_25_93
*802 FILLER_0_26_109
*803 FILLER_0_26_121
*804 FILLER_0_26_133
*805 FILLER_0_26_139
*806 FILLER_0_26_141
*807 FILLER_0_26_15
*808 FILLER_0_26_153
*809 FILLER_0_26_165
*810 FILLER_0_26_177
*811 FILLER_0_26_189
*812 FILLER_0_26_195
*813 FILLER_0_26_197
*814 FILLER_0_26_209
*815 FILLER_0_26_221
*816 FILLER_0_26_233
*817 FILLER_0_26_245
*818 FILLER_0_26_251
*819 FILLER_0_26_253
*820 FILLER_0_26_265
*821 FILLER_0_26_27
*822 FILLER_0_26_277
*823 FILLER_0_26_289
*824 FILLER_0_26_29
*825 FILLER_0_26_3
*826 FILLER_0_26_301
*827 FILLER_0_26_307
*828 FILLER_0_26_309
*829 FILLER_0_26_321
*830 FILLER_0_26_333
*831 FILLER_0_26_345
*832 FILLER_0_26_41
*833 FILLER_0_26_53
*834 FILLER_0_26_65
*835 FILLER_0_26_77
*836 FILLER_0_26_83
*837 FILLER_0_26_85
*838 FILLER_0_26_97
*839 FILLER_0_27_105
*840 FILLER_0_27_111
*841 FILLER_0_27_113
*842 FILLER_0_27_125
*843 FILLER_0_27_137
*844 FILLER_0_27_149
*845 FILLER_0_27_15
*846 FILLER_0_27_161
*847 FILLER_0_27_167
*848 FILLER_0_27_169
*849 FILLER_0_27_181
*850 FILLER_0_27_193
*851 FILLER_0_27_205
*852 FILLER_0_27_217
*853 FILLER_0_27_223
*854 FILLER_0_27_225
*855 FILLER_0_27_237
*856 FILLER_0_27_249
*857 FILLER_0_27_261
*858 FILLER_0_27_27
*859 FILLER_0_27_273
*860 FILLER_0_27_279
*861 FILLER_0_27_281
*862 FILLER_0_27_293
*863 FILLER_0_27_3
*864 FILLER_0_27_305
*865 FILLER_0_27_317
*866 FILLER_0_27_329
*867 FILLER_0_27_335
*868 FILLER_0_27_337
*869 FILLER_0_27_349
*870 FILLER_0_27_39
*871 FILLER_0_27_51
*872 FILLER_0_27_55
*873 FILLER_0_27_57
*874 FILLER_0_27_69
*875 FILLER_0_27_81
*876 FILLER_0_27_93
*877 FILLER_0_28_109
*878 FILLER_0_28_121
*879 FILLER_0_28_133
*880 FILLER_0_28_139
*881 FILLER_0_28_141
*882 FILLER_0_28_15
*883 FILLER_0_28_153
*884 FILLER_0_28_165
*885 FILLER_0_28_177
*886 FILLER_0_28_189
*887 FILLER_0_28_195
*888 FILLER_0_28_197
*889 FILLER_0_28_209
*890 FILLER_0_28_221
*891 FILLER_0_28_233
*892 FILLER_0_28_245
*893 FILLER_0_28_251
*894 FILLER_0_28_253
*895 FILLER_0_28_265
*896 FILLER_0_28_27
*897 FILLER_0_28_277
*898 FILLER_0_28_289
*899 FILLER_0_28_29
*900 FILLER_0_28_3
*901 FILLER_0_28_301
*902 FILLER_0_28_307
*903 FILLER_0_28_309
*904 FILLER_0_28_321
*905 FILLER_0_28_333
*906 FILLER_0_28_345
*907 FILLER_0_28_41
*908 FILLER_0_28_53
*909 FILLER_0_28_65
*910 FILLER_0_28_77
*911 FILLER_0_28_83
*912 FILLER_0_28_85
*913 FILLER_0_28_97
*914 FILLER_0_29_105
*915 FILLER_0_29_111
*916 FILLER_0_29_113
*917 FILLER_0_29_125
*918 FILLER_0_29_137
*919 FILLER_0_29_149
*920 FILLER_0_29_15
*921 FILLER_0_29_161
*922 FILLER_0_29_167
*923 FILLER_0_29_169
*924 FILLER_0_29_181
*925 FILLER_0_29_193
*926 FILLER_0_29_205
*927 FILLER_0_29_217
*928 FILLER_0_29_223
*929 FILLER_0_29_225
*930 FILLER_0_29_237
*931 FILLER_0_29_249
*932 FILLER_0_29_261
*933 FILLER_0_29_27
*934 FILLER_0_29_273
*935 FILLER_0_29_279
*936 FILLER_0_29_281
*937 FILLER_0_29_293
*938 FILLER_0_29_3
*939 FILLER_0_29_305
*940 FILLER_0_29_317
*941 FILLER_0_29_329
*942 FILLER_0_29_335
*943 FILLER_0_29_337
*944 FILLER_0_29_349
*945 FILLER_0_29_39
*946 FILLER_0_29_51
*947 FILLER_0_29_55
*948 FILLER_0_29_57
*949 FILLER_0_29_69
*950 FILLER_0_29_81
*951 FILLER_0_29_93
*952 FILLER_0_2_109
*953 FILLER_0_2_121
*954 FILLER_0_2_133
*955 FILLER_0_2_139
*956 FILLER_0_2_141
*957 FILLER_0_2_15
*958 FILLER_0_2_153
*959 FILLER_0_2_165
*960 FILLER_0_2_177
*961 FILLER_0_2_189
*962 FILLER_0_2_195
*963 FILLER_0_2_197
*964 FILLER_0_2_209
*965 FILLER_0_2_221
*966 FILLER_0_2_233
*967 FILLER_0_2_245
*968 FILLER_0_2_251
*969 FILLER_0_2_253
*970 FILLER_0_2_265
*971 FILLER_0_2_27
*972 FILLER_0_2_277
*973 FILLER_0_2_289
*974 FILLER_0_2_29
*975 FILLER_0_2_3
*976 FILLER_0_2_301
*977 FILLER_0_2_307
*978 FILLER_0_2_309
*979 FILLER_0_2_321
*980 FILLER_0_2_333
*981 FILLER_0_2_345
*982 FILLER_0_2_41
*983 FILLER_0_2_53
*984 FILLER_0_2_65
*985 FILLER_0_2_77
*986 FILLER_0_2_83
*987 FILLER_0_2_85
*988 FILLER_0_2_97
*989 FILLER_0_30_109
*990 FILLER_0_30_121
*991 FILLER_0_30_133
*992 FILLER_0_30_139
*993 FILLER_0_30_141
*994 FILLER_0_30_15
*995 FILLER_0_30_153
*996 FILLER_0_30_165
*997 FILLER_0_30_177
*998 FILLER_0_30_189
*999 FILLER_0_30_195
*1000 FILLER_0_30_197
*1001 FILLER_0_30_209
*1002 FILLER_0_30_221
*1003 FILLER_0_30_233
*1004 FILLER_0_30_245
*1005 FILLER_0_30_251
*1006 FILLER_0_30_253
*1007 FILLER_0_30_265
*1008 FILLER_0_30_27
*1009 FILLER_0_30_277
*1010 FILLER_0_30_289
*1011 FILLER_0_30_29
*1012 FILLER_0_30_3
*1013 FILLER_0_30_301
*1014 FILLER_0_30_307
*1015 FILLER_0_30_309
*1016 FILLER_0_30_321
*1017 FILLER_0_30_333
*1018 FILLER_0_30_345
*1019 FILLER_0_30_41
*1020 FILLER_0_30_53
*1021 FILLER_0_30_65
*1022 FILLER_0_30_77
*1023 FILLER_0_30_83
*1024 FILLER_0_30_85
*1025 FILLER_0_30_97
*1026 FILLER_0_31_105
*1027 FILLER_0_31_111
*1028 FILLER_0_31_113
*1029 FILLER_0_31_125
*1030 FILLER_0_31_137
*1031 FILLER_0_31_149
*1032 FILLER_0_31_15
*1033 FILLER_0_31_161
*1034 FILLER_0_31_167
*1035 FILLER_0_31_169
*1036 FILLER_0_31_181
*1037 FILLER_0_31_193
*1038 FILLER_0_31_205
*1039 FILLER_0_31_217
*1040 FILLER_0_31_223
*1041 FILLER_0_31_225
*1042 FILLER_0_31_237
*1043 FILLER_0_31_249
*1044 FILLER_0_31_261
*1045 FILLER_0_31_27
*1046 FILLER_0_31_273
*1047 FILLER_0_31_279
*1048 FILLER_0_31_281
*1049 FILLER_0_31_293
*1050 FILLER_0_31_3
*1051 FILLER_0_31_305
*1052 FILLER_0_31_317
*1053 FILLER_0_31_329
*1054 FILLER_0_31_335
*1055 FILLER_0_31_337
*1056 FILLER_0_31_349
*1057 FILLER_0_31_39
*1058 FILLER_0_31_51
*1059 FILLER_0_31_55
*1060 FILLER_0_31_57
*1061 FILLER_0_31_69
*1062 FILLER_0_31_81
*1063 FILLER_0_31_93
*1064 FILLER_0_32_109
*1065 FILLER_0_32_121
*1066 FILLER_0_32_133
*1067 FILLER_0_32_139
*1068 FILLER_0_32_141
*1069 FILLER_0_32_15
*1070 FILLER_0_32_153
*1071 FILLER_0_32_165
*1072 FILLER_0_32_177
*1073 FILLER_0_32_189
*1074 FILLER_0_32_195
*1075 FILLER_0_32_197
*1076 FILLER_0_32_209
*1077 FILLER_0_32_217
*1078 FILLER_0_32_240
*1079 FILLER_0_32_253
*1080 FILLER_0_32_265
*1081 FILLER_0_32_27
*1082 FILLER_0_32_29
*1083 FILLER_0_32_297
*1084 FILLER_0_32_3
*1085 FILLER_0_32_305
*1086 FILLER_0_32_309
*1087 FILLER_0_32_321
*1088 FILLER_0_32_333
*1089 FILLER_0_32_345
*1090 FILLER_0_32_41
*1091 FILLER_0_32_53
*1092 FILLER_0_32_65
*1093 FILLER_0_32_77
*1094 FILLER_0_32_83
*1095 FILLER_0_32_85
*1096 FILLER_0_32_97
*1097 FILLER_0_33_105
*1098 FILLER_0_33_111
*1099 FILLER_0_33_113
*1100 FILLER_0_33_125
*1101 FILLER_0_33_137
*1102 FILLER_0_33_149
*1103 FILLER_0_33_15
*1104 FILLER_0_33_161
*1105 FILLER_0_33_167
*1106 FILLER_0_33_169
*1107 FILLER_0_33_175
*1108 FILLER_0_33_187
*1109 FILLER_0_33_205
*1110 FILLER_0_33_215
*1111 FILLER_0_33_223
*1112 FILLER_0_33_225
*1113 FILLER_0_33_229
*1114 FILLER_0_33_236
*1115 FILLER_0_33_244
*1116 FILLER_0_33_253
*1117 FILLER_0_33_27
*1118 FILLER_0_33_278
*1119 FILLER_0_33_281
*1120 FILLER_0_33_293
*1121 FILLER_0_33_3
*1122 FILLER_0_33_305
*1123 FILLER_0_33_317
*1124 FILLER_0_33_329
*1125 FILLER_0_33_335
*1126 FILLER_0_33_337
*1127 FILLER_0_33_349
*1128 FILLER_0_33_39
*1129 FILLER_0_33_51
*1130 FILLER_0_33_55
*1131 FILLER_0_33_57
*1132 FILLER_0_33_69
*1133 FILLER_0_33_81
*1134 FILLER_0_33_93
*1135 FILLER_0_34_109
*1136 FILLER_0_34_121
*1137 FILLER_0_34_133
*1138 FILLER_0_34_139
*1139 FILLER_0_34_141
*1140 FILLER_0_34_15
*1141 FILLER_0_34_153
*1142 FILLER_0_34_165
*1143 FILLER_0_34_189
*1144 FILLER_0_34_195
*1145 FILLER_0_34_213
*1146 FILLER_0_34_230
*1147 FILLER_0_34_239
*1148 FILLER_0_34_243
*1149 FILLER_0_34_269
*1150 FILLER_0_34_27
*1151 FILLER_0_34_286
*1152 FILLER_0_34_29
*1153 FILLER_0_34_298
*1154 FILLER_0_34_3
*1155 FILLER_0_34_306
*1156 FILLER_0_34_309
*1157 FILLER_0_34_321
*1158 FILLER_0_34_333
*1159 FILLER_0_34_345
*1160 FILLER_0_34_41
*1161 FILLER_0_34_53
*1162 FILLER_0_34_65
*1163 FILLER_0_34_77
*1164 FILLER_0_34_83
*1165 FILLER_0_34_85
*1166 FILLER_0_34_97
*1167 FILLER_0_35_105
*1168 FILLER_0_35_111
*1169 FILLER_0_35_113
*1170 FILLER_0_35_125
*1171 FILLER_0_35_137
*1172 FILLER_0_35_149
*1173 FILLER_0_35_15
*1174 FILLER_0_35_161
*1175 FILLER_0_35_167
*1176 FILLER_0_35_169
*1177 FILLER_0_35_181
*1178 FILLER_0_35_195
*1179 FILLER_0_35_206
*1180 FILLER_0_35_218
*1181 FILLER_0_35_222
*1182 FILLER_0_35_230
*1183 FILLER_0_35_249
*1184 FILLER_0_35_253
*1185 FILLER_0_35_27
*1186 FILLER_0_35_270
*1187 FILLER_0_35_289
*1188 FILLER_0_35_3
*1189 FILLER_0_35_301
*1190 FILLER_0_35_320
*1191 FILLER_0_35_332
*1192 FILLER_0_35_337
*1193 FILLER_0_35_349
*1194 FILLER_0_35_39
*1195 FILLER_0_35_51
*1196 FILLER_0_35_55
*1197 FILLER_0_35_57
*1198 FILLER_0_35_69
*1199 FILLER_0_35_81
*1200 FILLER_0_35_93
*1201 FILLER_0_36_109
*1202 FILLER_0_36_121
*1203 FILLER_0_36_133
*1204 FILLER_0_36_139
*1205 FILLER_0_36_141
*1206 FILLER_0_36_15
*1207 FILLER_0_36_153
*1208 FILLER_0_36_165
*1209 FILLER_0_36_172
*1210 FILLER_0_36_197
*1211 FILLER_0_36_223
*1212 FILLER_0_36_236
*1213 FILLER_0_36_248
*1214 FILLER_0_36_27
*1215 FILLER_0_36_281
*1216 FILLER_0_36_29
*1217 FILLER_0_36_3
*1218 FILLER_0_36_304
*1219 FILLER_0_36_309
*1220 FILLER_0_36_322
*1221 FILLER_0_36_333
*1222 FILLER_0_36_345
*1223 FILLER_0_36_41
*1224 FILLER_0_36_53
*1225 FILLER_0_36_65
*1226 FILLER_0_36_77
*1227 FILLER_0_36_83
*1228 FILLER_0_36_85
*1229 FILLER_0_36_97
*1230 FILLER_0_37_105
*1231 FILLER_0_37_111
*1232 FILLER_0_37_113
*1233 FILLER_0_37_125
*1234 FILLER_0_37_137
*1235 FILLER_0_37_149
*1236 FILLER_0_37_15
*1237 FILLER_0_37_159
*1238 FILLER_0_37_167
*1239 FILLER_0_37_185
*1240 FILLER_0_37_205
*1241 FILLER_0_37_255
*1242 FILLER_0_37_261
*1243 FILLER_0_37_27
*1244 FILLER_0_37_279
*1245 FILLER_0_37_292
*1246 FILLER_0_37_3
*1247 FILLER_0_37_337
*1248 FILLER_0_37_349
*1249 FILLER_0_37_39
*1250 FILLER_0_37_51
*1251 FILLER_0_37_55
*1252 FILLER_0_37_57
*1253 FILLER_0_37_69
*1254 FILLER_0_37_81
*1255 FILLER_0_37_93
*1256 FILLER_0_38_102
*1257 FILLER_0_38_106
*1258 FILLER_0_38_110
*1259 FILLER_0_38_113
*1260 FILLER_0_38_118
*1261 FILLER_0_38_122
*1262 FILLER_0_38_126
*1263 FILLER_0_38_130
*1264 FILLER_0_38_134
*1265 FILLER_0_38_14
*1266 FILLER_0_38_150
*1267 FILLER_0_38_158
*1268 FILLER_0_38_162
*1269 FILLER_0_38_166
*1270 FILLER_0_38_169
*1271 FILLER_0_38_18
*1272 FILLER_0_38_194
*1273 FILLER_0_38_197
*1274 FILLER_0_38_205
*1275 FILLER_0_38_209
*1276 FILLER_0_38_214
*1277 FILLER_0_38_22
*1278 FILLER_0_38_222
*1279 FILLER_0_38_225
*1280 FILLER_0_38_237
*1281 FILLER_0_38_249
*1282 FILLER_0_38_253
*1283 FILLER_0_38_3
*1284 FILLER_0_38_309
*1285 FILLER_0_38_32
*1286 FILLER_0_38_330
*1287 FILLER_0_38_337
*1288 FILLER_0_38_349
*1289 FILLER_0_38_38
*1290 FILLER_0_38_42
*1291 FILLER_0_38_46
*1292 FILLER_0_38_50
*1293 FILLER_0_38_54
*1294 FILLER_0_38_57
*1295 FILLER_0_38_62
*1296 FILLER_0_38_66
*1297 FILLER_0_38_70
*1298 FILLER_0_38_74
*1299 FILLER_0_38_78
*1300 FILLER_0_38_88
*1301 FILLER_0_38_94
*1302 FILLER_0_38_98
*1303 FILLER_0_3_105
*1304 FILLER_0_3_111
*1305 FILLER_0_3_113
*1306 FILLER_0_3_125
*1307 FILLER_0_3_137
*1308 FILLER_0_3_149
*1309 FILLER_0_3_15
*1310 FILLER_0_3_161
*1311 FILLER_0_3_167
*1312 FILLER_0_3_169
*1313 FILLER_0_3_181
*1314 FILLER_0_3_193
*1315 FILLER_0_3_205
*1316 FILLER_0_3_217
*1317 FILLER_0_3_223
*1318 FILLER_0_3_225
*1319 FILLER_0_3_237
*1320 FILLER_0_3_249
*1321 FILLER_0_3_261
*1322 FILLER_0_3_27
*1323 FILLER_0_3_273
*1324 FILLER_0_3_279
*1325 FILLER_0_3_281
*1326 FILLER_0_3_293
*1327 FILLER_0_3_3
*1328 FILLER_0_3_305
*1329 FILLER_0_3_317
*1330 FILLER_0_3_329
*1331 FILLER_0_3_335
*1332 FILLER_0_3_337
*1333 FILLER_0_3_349
*1334 FILLER_0_3_39
*1335 FILLER_0_3_51
*1336 FILLER_0_3_55
*1337 FILLER_0_3_57
*1338 FILLER_0_3_69
*1339 FILLER_0_3_81
*1340 FILLER_0_3_93
*1341 FILLER_0_4_109
*1342 FILLER_0_4_121
*1343 FILLER_0_4_133
*1344 FILLER_0_4_139
*1345 FILLER_0_4_141
*1346 FILLER_0_4_15
*1347 FILLER_0_4_153
*1348 FILLER_0_4_165
*1349 FILLER_0_4_177
*1350 FILLER_0_4_189
*1351 FILLER_0_4_195
*1352 FILLER_0_4_197
*1353 FILLER_0_4_209
*1354 FILLER_0_4_221
*1355 FILLER_0_4_233
*1356 FILLER_0_4_245
*1357 FILLER_0_4_251
*1358 FILLER_0_4_253
*1359 FILLER_0_4_265
*1360 FILLER_0_4_27
*1361 FILLER_0_4_277
*1362 FILLER_0_4_289
*1363 FILLER_0_4_29
*1364 FILLER_0_4_3
*1365 FILLER_0_4_301
*1366 FILLER_0_4_307
*1367 FILLER_0_4_309
*1368 FILLER_0_4_321
*1369 FILLER_0_4_333
*1370 FILLER_0_4_345
*1371 FILLER_0_4_41
*1372 FILLER_0_4_53
*1373 FILLER_0_4_65
*1374 FILLER_0_4_77
*1375 FILLER_0_4_83
*1376 FILLER_0_4_85
*1377 FILLER_0_4_97
*1378 FILLER_0_5_105
*1379 FILLER_0_5_111
*1380 FILLER_0_5_113
*1381 FILLER_0_5_125
*1382 FILLER_0_5_137
*1383 FILLER_0_5_149
*1384 FILLER_0_5_15
*1385 FILLER_0_5_161
*1386 FILLER_0_5_167
*1387 FILLER_0_5_169
*1388 FILLER_0_5_181
*1389 FILLER_0_5_193
*1390 FILLER_0_5_205
*1391 FILLER_0_5_217
*1392 FILLER_0_5_223
*1393 FILLER_0_5_225
*1394 FILLER_0_5_237
*1395 FILLER_0_5_249
*1396 FILLER_0_5_261
*1397 FILLER_0_5_27
*1398 FILLER_0_5_273
*1399 FILLER_0_5_279
*1400 FILLER_0_5_281
*1401 FILLER_0_5_293
*1402 FILLER_0_5_3
*1403 FILLER_0_5_305
*1404 FILLER_0_5_317
*1405 FILLER_0_5_329
*1406 FILLER_0_5_335
*1407 FILLER_0_5_337
*1408 FILLER_0_5_349
*1409 FILLER_0_5_39
*1410 FILLER_0_5_51
*1411 FILLER_0_5_55
*1412 FILLER_0_5_57
*1413 FILLER_0_5_69
*1414 FILLER_0_5_81
*1415 FILLER_0_5_93
*1416 FILLER_0_6_109
*1417 FILLER_0_6_121
*1418 FILLER_0_6_133
*1419 FILLER_0_6_139
*1420 FILLER_0_6_141
*1421 FILLER_0_6_15
*1422 FILLER_0_6_153
*1423 FILLER_0_6_165
*1424 FILLER_0_6_177
*1425 FILLER_0_6_189
*1426 FILLER_0_6_195
*1427 FILLER_0_6_197
*1428 FILLER_0_6_209
*1429 FILLER_0_6_221
*1430 FILLER_0_6_233
*1431 FILLER_0_6_245
*1432 FILLER_0_6_251
*1433 FILLER_0_6_253
*1434 FILLER_0_6_265
*1435 FILLER_0_6_27
*1436 FILLER_0_6_277
*1437 FILLER_0_6_289
*1438 FILLER_0_6_29
*1439 FILLER_0_6_3
*1440 FILLER_0_6_301
*1441 FILLER_0_6_307
*1442 FILLER_0_6_309
*1443 FILLER_0_6_321
*1444 FILLER_0_6_333
*1445 FILLER_0_6_345
*1446 FILLER_0_6_41
*1447 FILLER_0_6_53
*1448 FILLER_0_6_65
*1449 FILLER_0_6_77
*1450 FILLER_0_6_83
*1451 FILLER_0_6_85
*1452 FILLER_0_6_97
*1453 FILLER_0_7_105
*1454 FILLER_0_7_111
*1455 FILLER_0_7_113
*1456 FILLER_0_7_125
*1457 FILLER_0_7_137
*1458 FILLER_0_7_149
*1459 FILLER_0_7_15
*1460 FILLER_0_7_161
*1461 FILLER_0_7_167
*1462 FILLER_0_7_169
*1463 FILLER_0_7_181
*1464 FILLER_0_7_193
*1465 FILLER_0_7_205
*1466 FILLER_0_7_217
*1467 FILLER_0_7_223
*1468 FILLER_0_7_225
*1469 FILLER_0_7_237
*1470 FILLER_0_7_249
*1471 FILLER_0_7_261
*1472 FILLER_0_7_27
*1473 FILLER_0_7_273
*1474 FILLER_0_7_279
*1475 FILLER_0_7_281
*1476 FILLER_0_7_293
*1477 FILLER_0_7_3
*1478 FILLER_0_7_305
*1479 FILLER_0_7_317
*1480 FILLER_0_7_329
*1481 FILLER_0_7_335
*1482 FILLER_0_7_337