*SPEF "ieee 1481-1999"
*DESIGN "tt_um_wokwi_374778387606763521"
*DATE "11:11:11 Fri 11 11, 1111"
*VENDOR "OpenRCX"
*PROGRAM "Parallel Extraction"
*VERSION "1.0"
*DESIGN_FLOW "NAME_SCOPE LOCAL" "PIN_CAP NONE"
*DIVIDER /
*DELIMITER :
*BUS_DELIMITER []
*T_UNIT 1 NS
*C_UNIT 1 PF
*R_UNIT 1 OHM
*L_UNIT 1 HENRY

*NAME_MAP
*3 clk
*4 ena
*5 rst_n
*6 ui_in[0]
*7 ui_in[1]
*8 ui_in[2]
*9 ui_in[3]
*10 ui_in[4]
*11 ui_in[5]
*12 ui_in[6]
*13 ui_in[7]
*14 uio_in[0]
*15 uio_in[1]
*16 uio_in[2]
*17 uio_in[3]
*18 uio_in[4]
*19 uio_in[5]
*20 uio_in[6]
*21 uio_in[7]
*22 net23
*23 net9
*24 net10
*25 net11
*26 net12
*27 net13
*28 net14
*29 net15
*30 uio_out[0]
*31 net16
*32 net17
*33 net18
*34 net19
*35 net20
*36 net21
*37 net22
*38 uo_out[0]
*39 uo_out[1]
*40 uo_out[2]
*41 uo_out[3]
*42 uo_out[4]
*43 uo_out[5]
*44 uo_out[6]
*45 uo_out[7]
*46 _00_
*47 _01_
*48 _02_
*49 _03_
*50 _04_
*51 _05_
*52 _06_
*53 _07_
*54 _08_
*55 _09_
*56 _10_
*57 _11_
*58 _12_
*59 _13_
*60 _14_
*61 _15_
*62 _16_
*63 _17_
*64 _18_
*65 _19_
*66 _20_
*67 and1\.a
*68 and10\.a
*69 and11\.a
*70 and12\.a
*71 and13\.a
*72 and14\.a
*73 and15\.a
*74 and2\.a
*75 and3\.a
*76 and4\.a
*77 and5\.a
*78 and6\.a
*79 and7\.a
*80 and8\.a
*81 and9\.a
*82 flop1\.d
*83 net1
*84 net2
*85 net24
*86 net3
*87 net4
*88 net5
*89 net6
*90 net7
*91 net8
*92 or15\.out
*93 FILLER_0_0_109
*94 FILLER_0_0_113
*95 FILLER_0_0_125
*96 FILLER_0_0_137
*97 FILLER_0_0_141
*98 FILLER_0_0_15
*99 FILLER_0_0_153
*100 FILLER_0_0_165
*101 FILLER_0_0_169
*102 FILLER_0_0_181
*103 FILLER_0_0_193
*104 FILLER_0_0_197
*105 FILLER_0_0_209
*106 FILLER_0_0_221
*107 FILLER_0_0_225
*108 FILLER_0_0_237
*109 FILLER_0_0_249
*110 FILLER_0_0_253
*111 FILLER_0_0_265
*112 FILLER_0_0_27
*113 FILLER_0_0_277
*114 FILLER_0_0_281
*115 FILLER_0_0_29
*116 FILLER_0_0_293
*117 FILLER_0_0_3
*118 FILLER_0_0_305
*119 FILLER_0_0_309
*120 FILLER_0_0_321
*121 FILLER_0_0_333
*122 FILLER_0_0_337
*123 FILLER_0_0_349
*124 FILLER_0_0_41
*125 FILLER_0_0_53
*126 FILLER_0_0_57
*127 FILLER_0_0_69
*128 FILLER_0_0_81
*129 FILLER_0_0_85
*130 FILLER_0_0_97
*131 FILLER_0_10_109
*132 FILLER_0_10_121
*133 FILLER_0_10_133
*134 FILLER_0_10_139
*135 FILLER_0_10_141
*136 FILLER_0_10_15
*137 FILLER_0_10_153
*138 FILLER_0_10_165
*139 FILLER_0_10_177
*140 FILLER_0_10_189
*141 FILLER_0_10_195
*142 FILLER_0_10_197
*143 FILLER_0_10_209
*144 FILLER_0_10_221
*145 FILLER_0_10_233
*146 FILLER_0_10_245
*147 FILLER_0_10_251
*148 FILLER_0_10_253
*149 FILLER_0_10_265
*150 FILLER_0_10_27
*151 FILLER_0_10_277
*152 FILLER_0_10_289
*153 FILLER_0_10_29
*154 FILLER_0_10_3
*155 FILLER_0_10_301
*156 FILLER_0_10_307
*157 FILLER_0_10_309
*158 FILLER_0_10_321
*159 FILLER_0_10_333
*160 FILLER_0_10_345
*161 FILLER_0_10_41
*162 FILLER_0_10_53
*163 FILLER_0_10_65
*164 FILLER_0_10_77
*165 FILLER_0_10_83
*166 FILLER_0_10_85
*167 FILLER_0_10_97
*168 FILLER_0_11_105
*169 FILLER_0_11_111
*170 FILLER_0_11_113
*171 FILLER_0_11_125
*172 FILLER_0_11_137
*173 FILLER_0_11_149
*174 FILLER_0_11_15
*175 FILLER_0_11_161
*176 FILLER_0_11_167
*177 FILLER_0_11_169
*178 FILLER_0_11_181
*179 FILLER_0_11_193
*180 FILLER_0_11_205
*181 FILLER_0_11_217
*182 FILLER_0_11_223
*183 FILLER_0_11_225
*184 FILLER_0_11_237
*185 FILLER_0_11_249
*186 FILLER_0_11_261
*187 FILLER_0_11_27
*188 FILLER_0_11_273
*189 FILLER_0_11_279
*190 FILLER_0_11_281
*191 FILLER_0_11_293
*192 FILLER_0_11_3
*193 FILLER_0_11_305
*194 FILLER_0_11_317
*195 FILLER_0_11_329
*196 FILLER_0_11_335
*197 FILLER_0_11_337
*198 FILLER_0_11_349
*199 FILLER_0_11_39
*200 FILLER_0_11_51
*201 FILLER_0_11_55
*202 FILLER_0_11_57
*203 FILLER_0_11_69
*204 FILLER_0_11_81
*205 FILLER_0_11_93
*206 FILLER_0_12_109
*207 FILLER_0_12_121
*208 FILLER_0_12_133
*209 FILLER_0_12_139
*210 FILLER_0_12_141
*211 FILLER_0_12_15
*212 FILLER_0_12_153
*213 FILLER_0_12_165
*214 FILLER_0_12_177
*215 FILLER_0_12_189
*216 FILLER_0_12_195
*217 FILLER_0_12_197
*218 FILLER_0_12_209
*219 FILLER_0_12_221
*220 FILLER_0_12_233
*221 FILLER_0_12_245
*222 FILLER_0_12_251
*223 FILLER_0_12_253
*224 FILLER_0_12_265
*225 FILLER_0_12_27
*226 FILLER_0_12_277
*227 FILLER_0_12_289
*228 FILLER_0_12_29
*229 FILLER_0_12_3
*230 FILLER_0_12_301
*231 FILLER_0_12_307
*232 FILLER_0_12_309
*233 FILLER_0_12_321
*234 FILLER_0_12_333
*235 FILLER_0_12_345
*236 FILLER_0_12_41
*237 FILLER_0_12_53
*238 FILLER_0_12_65
*239 FILLER_0_12_77
*240 FILLER_0_12_83
*241 FILLER_0_12_85
*242 FILLER_0_12_97
*243 FILLER_0_13_105
*244 FILLER_0_13_111
*245 FILLER_0_13_113
*246 FILLER_0_13_125
*247 FILLER_0_13_137
*248 FILLER_0_13_149
*249 FILLER_0_13_15
*250 FILLER_0_13_161
*251 FILLER_0_13_167
*252 FILLER_0_13_169
*253 FILLER_0_13_181
*254 FILLER_0_13_193
*255 FILLER_0_13_205
*256 FILLER_0_13_217
*257 FILLER_0_13_223
*258 FILLER_0_13_225
*259 FILLER_0_13_237
*260 FILLER_0_13_249
*261 FILLER_0_13_261
*262 FILLER_0_13_27
*263 FILLER_0_13_273
*264 FILLER_0_13_279
*265 FILLER_0_13_281
*266 FILLER_0_13_293
*267 FILLER_0_13_3
*268 FILLER_0_13_305
*269 FILLER_0_13_317
*270 FILLER_0_13_329
*271 FILLER_0_13_335
*272 FILLER_0_13_337
*273 FILLER_0_13_349
*274 FILLER_0_13_39
*275 FILLER_0_13_51
*276 FILLER_0_13_55
*277 FILLER_0_13_57
*278 FILLER_0_13_69
*279 FILLER_0_13_81
*280 FILLER_0_13_93
*281 FILLER_0_14_109
*282 FILLER_0_14_121
*283 FILLER_0_14_133
*284 FILLER_0_14_139
*285 FILLER_0_14_141
*286 FILLER_0_14_15
*287 FILLER_0_14_153
*288 FILLER_0_14_165
*289 FILLER_0_14_177
*290 FILLER_0_14_189
*291 FILLER_0_14_195
*292 FILLER_0_14_197
*293 FILLER_0_14_209
*294 FILLER_0_14_221
*295 FILLER_0_14_233
*296 FILLER_0_14_245
*297 FILLER_0_14_251
*298 FILLER_0_14_253
*299 FILLER_0_14_265
*300 FILLER_0_14_27
*301 FILLER_0_14_277
*302 FILLER_0_14_289
*303 FILLER_0_14_29
*304 FILLER_0_14_3
*305 FILLER_0_14_301
*306 FILLER_0_14_307
*307 FILLER_0_14_309
*308 FILLER_0_14_321
*309 FILLER_0_14_333
*310 FILLER_0_14_345
*311 FILLER_0_14_41
*312 FILLER_0_14_53
*313 FILLER_0_14_65
*314 FILLER_0_14_77
*315 FILLER_0_14_83
*316 FILLER_0_14_85
*317 FILLER_0_14_97
*318 FILLER_0_15_105
*319 FILLER_0_15_111
*320 FILLER_0_15_113
*321 FILLER_0_15_125
*322 FILLER_0_15_137
*323 FILLER_0_15_149
*324 FILLER_0_15_15
*325 FILLER_0_15_161
*326 FILLER_0_15_167
*327 FILLER_0_15_169
*328 FILLER_0_15_181
*329 FILLER_0_15_193
*330 FILLER_0_15_205
*331 FILLER_0_15_217
*332 FILLER_0_15_223
*333 FILLER_0_15_225
*334 FILLER_0_15_237
*335 FILLER_0_15_249
*336 FILLER_0_15_261
*337 FILLER_0_15_27
*338 FILLER_0_15_273
*339 FILLER_0_15_279
*340 FILLER_0_15_281
*341 FILLER_0_15_293
*342 FILLER_0_15_3
*343 FILLER_0_15_305
*344 FILLER_0_15_317
*345 FILLER_0_15_329
*346 FILLER_0_15_335
*347 FILLER_0_15_337
*348 FILLER_0_15_349
*349 FILLER_0_15_39
*350 FILLER_0_15_51
*351 FILLER_0_15_55
*352 FILLER_0_15_57
*353 FILLER_0_15_69
*354 FILLER_0_15_81
*355 FILLER_0_15_93
*356 FILLER_0_16_109
*357 FILLER_0_16_121
*358 FILLER_0_16_133
*359 FILLER_0_16_139
*360 FILLER_0_16_141
*361 FILLER_0_16_15
*362 FILLER_0_16_153
*363 FILLER_0_16_165
*364 FILLER_0_16_177
*365 FILLER_0_16_189
*366 FILLER_0_16_195
*367 FILLER_0_16_197
*368 FILLER_0_16_209
*369 FILLER_0_16_221
*370 FILLER_0_16_233
*371 FILLER_0_16_245
*372 FILLER_0_16_251
*373 FILLER_0_16_253
*374 FILLER_0_16_265
*375 FILLER_0_16_27
*376 FILLER_0_16_277
*377 FILLER_0_16_289
*378 FILLER_0_16_29
*379 FILLER_0_16_3
*380 FILLER_0_16_301
*381 FILLER_0_16_307
*382 FILLER_0_16_309
*383 FILLER_0_16_321
*384 FILLER_0_16_333
*385 FILLER_0_16_345
*386 FILLER_0_16_41
*387 FILLER_0_16_53
*388 FILLER_0_16_65
*389 FILLER_0_16_77
*390 FILLER_0_16_83
*391 FILLER_0_16_85
*392 FILLER_0_16_97
*393 FILLER_0_17_105
*394 FILLER_0_17_111
*395 FILLER_0_17_113
*396 FILLER_0_17_125
*397 FILLER_0_17_137
*398 FILLER_0_17_149
*399 FILLER_0_17_15
*400 FILLER_0_17_161
*401 FILLER_0_17_167
*402 FILLER_0_17_169
*403 FILLER_0_17_181
*404 FILLER_0_17_193
*405 FILLER_0_17_205
*406 FILLER_0_17_217
*407 FILLER_0_17_223
*408 FILLER_0_17_225
*409 FILLER_0_17_237
*410 FILLER_0_17_249
*411 FILLER_0_17_261
*412 FILLER_0_17_27
*413 FILLER_0_17_273
*414 FILLER_0_17_279
*415 FILLER_0_17_281
*416 FILLER_0_17_293
*417 FILLER_0_17_3
*418 FILLER_0_17_305
*419 FILLER_0_17_317
*420 FILLER_0_17_329
*421 FILLER_0_17_335
*422 FILLER_0_17_337
*423 FILLER_0_17_349
*424 FILLER_0_17_39
*425 FILLER_0_17_51
*426 FILLER_0_17_55
*427 FILLER_0_17_57
*428 FILLER_0_17_69
*429 FILLER_0_17_81
*430 FILLER_0_17_93
*431 FILLER_0_18_109
*432 FILLER_0_18_121
*433 FILLER_0_18_133
*434 FILLER_0_18_139
*435 FILLER_0_18_141
*436 FILLER_0_18_15
*437 FILLER_0_18_153
*438 FILLER_0_18_165
*439 FILLER_0_18_177
*440 FILLER_0_18_189
*441 FILLER_0_18_195
*442 FILLER_0_18_197
*443 FILLER_0_18_209
*444 FILLER_0_18_221
*445 FILLER_0_18_233
*446 FILLER_0_18_245
*447 FILLER_0_18_251
*448 FILLER_0_18_253
*449 FILLER_0_18_265
*450 FILLER_0_18_27
*451 FILLER_0_18_277
*452 FILLER_0_18_289
*453 FILLER_0_18_29
*454 FILLER_0_18_3
*455 FILLER_0_18_301
*456 FILLER_0_18_307
*457 FILLER_0_18_309
*458 FILLER_0_18_321
*459 FILLER_0_18_333
*460 FILLER_0_18_345
*461 FILLER_0_18_41
*462 FILLER_0_18_53
*463 FILLER_0_18_65
*464 FILLER_0_18_77
*465 FILLER_0_18_83
*466 FILLER_0_18_85
*467 FILLER_0_18_97
*468 FILLER_0_19_105
*469 FILLER_0_19_111
*470 FILLER_0_19_113
*471 FILLER_0_19_125
*472 FILLER_0_19_137
*473 FILLER_0_19_149
*474 FILLER_0_19_15
*475 FILLER_0_19_161
*476 FILLER_0_19_167
*477 FILLER_0_19_169
*478 FILLER_0_19_181
*479 FILLER_0_19_193
*480 FILLER_0_19_205
*481 FILLER_0_19_217
*482 FILLER_0_19_223
*483 FILLER_0_19_225
*484 FILLER_0_19_237
*485 FILLER_0_19_249
*486 FILLER_0_19_261
*487 FILLER_0_19_27
*488 FILLER_0_19_273
*489 FILLER_0_19_279
*490 FILLER_0_19_281
*491 FILLER_0_19_293
*492 FILLER_0_19_3
*493 FILLER_0_19_305
*494 FILLER_0_19_317
*495 FILLER_0_19_329
*496 FILLER_0_19_335
*497 FILLER_0_19_337
*498 FILLER_0_19_349
*499 FILLER_0_19_39
*500 FILLER_0_19_51
*501 FILLER_0_19_55
*502 FILLER_0_19_57
*503 FILLER_0_19_69
*504 FILLER_0_19_81
*505 FILLER_0_19_93
*506 FILLER_0_1_105
*507 FILLER_0_1_111
*508 FILLER_0_1_113
*509 FILLER_0_1_125
*510 FILLER_0_1_137
*511 FILLER_0_1_149
*512 FILLER_0_1_15
*513 FILLER_0_1_161
*514 FILLER_0_1_167
*515 FILLER_0_1_169
*516 FILLER_0_1_181
*517 FILLER_0_1_193
*518 FILLER_0_1_205
*519 FILLER_0_1_217
*520 FILLER_0_1_223
*521 FILLER_0_1_225
*522 FILLER_0_1_237
*523 FILLER_0_1_249
*524 FILLER_0_1_261
*525 FILLER_0_1_27
*526 FILLER_0_1_273
*527 FILLER_0_1_279
*528 FILLER_0_1_281
*529 FILLER_0_1_293
*530 FILLER_0_1_3
*531 FILLER_0_1_305
*532 FILLER_0_1_317
*533 FILLER_0_1_329
*534 FILLER_0_1_335
*535 FILLER_0_1_337
*536 FILLER_0_1_349
*537 FILLER_0_1_39
*538 FILLER_0_1_51
*539 FILLER_0_1_55
*540 FILLER_0_1_57
*541 FILLER_0_1_69
*542 FILLER_0_1_81
*543 FILLER_0_1_93
*544 FILLER_0_20_109
*545 FILLER_0_20_121
*546 FILLER_0_20_133
*547 FILLER_0_20_139
*548 FILLER_0_20_141
*549 FILLER_0_20_15
*550 FILLER_0_20_153
*551 FILLER_0_20_165
*552 FILLER_0_20_177
*553 FILLER_0_20_189
*554 FILLER_0_20_195
*555 FILLER_0_20_197
*556 FILLER_0_20_209
*557 FILLER_0_20_221
*558 FILLER_0_20_233
*559 FILLER_0_20_245
*560 FILLER_0_20_251
*561 FILLER_0_20_253
*562 FILLER_0_20_265
*563 FILLER_0_20_27
*564 FILLER_0_20_277
*565 FILLER_0_20_289
*566 FILLER_0_20_29
*567 FILLER_0_20_3
*568 FILLER_0_20_301
*569 FILLER_0_20_307
*570 FILLER_0_20_309
*571 FILLER_0_20_321
*572 FILLER_0_20_333
*573 FILLER_0_20_345
*574 FILLER_0_20_41
*575 FILLER_0_20_53
*576 FILLER_0_20_65
*577 FILLER_0_20_77
*578 FILLER_0_20_83
*579 FILLER_0_20_85
*580 FILLER_0_20_97
*581 FILLER_0_21_105
*582 FILLER_0_21_111
*583 FILLER_0_21_113
*584 FILLER_0_21_125
*585 FILLER_0_21_137
*586 FILLER_0_21_149
*587 FILLER_0_21_15
*588 FILLER_0_21_161
*589 FILLER_0_21_167
*590 FILLER_0_21_169
*591 FILLER_0_21_181
*592 FILLER_0_21_193
*593 FILLER_0_21_205
*594 FILLER_0_21_217
*595 FILLER_0_21_223
*596 FILLER_0_21_225
*597 FILLER_0_21_237
*598 FILLER_0_21_249
*599 FILLER_0_21_261
*600 FILLER_0_21_27
*601 FILLER_0_21_273
*602 FILLER_0_21_279
*603 FILLER_0_21_281
*604 FILLER_0_21_293
*605 FILLER_0_21_3
*606 FILLER_0_21_305
*607 FILLER_0_21_317
*608 FILLER_0_21_329
*609 FILLER_0_21_335
*610 FILLER_0_21_337
*611 FILLER_0_21_349
*612 FILLER_0_21_39
*613 FILLER_0_21_51
*614 FILLER_0_21_55
*615 FILLER_0_21_57
*616 FILLER_0_21_69
*617 FILLER_0_21_81
*618 FILLER_0_21_93
*619 FILLER_0_22_109
*620 FILLER_0_22_121
*621 FILLER_0_22_133
*622 FILLER_0_22_139
*623 FILLER_0_22_141
*624 FILLER_0_22_15
*625 FILLER_0_22_153
*626 FILLER_0_22_165
*627 FILLER_0_22_177
*628 FILLER_0_22_189
*629 FILLER_0_22_195
*630 FILLER_0_22_197
*631 FILLER_0_22_209
*632 FILLER_0_22_221
*633 FILLER_0_22_233
*634 FILLER_0_22_245
*635 FILLER_0_22_251
*636 FILLER_0_22_253
*637 FILLER_0_22_265
*638 FILLER_0_22_27
*639 FILLER_0_22_277
*640 FILLER_0_22_289
*641 FILLER_0_22_29
*642 FILLER_0_22_3
*643 FILLER_0_22_301
*644 FILLER_0_22_307
*645 FILLER_0_22_309
*646 FILLER_0_22_321
*647 FILLER_0_22_333
*648 FILLER_0_22_345
*649 FILLER_0_22_41
*650 FILLER_0_22_53
*651 FILLER_0_22_65
*652 FILLER_0_22_77
*653 FILLER_0_22_83
*654 FILLER_0_22_85
*655 FILLER_0_22_97
*656 FILLER_0_23_105
*657 FILLER_0_23_111
*658 FILLER_0_23_113
*659 FILLER_0_23_125
*660 FILLER_0_23_137
*661 FILLER_0_23_149
*662 FILLER_0_23_15
*663 FILLER_0_23_161
*664 FILLER_0_23_167
*665 FILLER_0_23_169
*666 FILLER_0_23_181
*667 FILLER_0_23_193
*668 FILLER_0_23_205
*669 FILLER_0_23_217
*670 FILLER_0_23_223
*671 FILLER_0_23_225
*672 FILLER_0_23_237
*673 FILLER_0_23_249
*674 FILLER_0_23_261
*675 FILLER_0_23_27
*676 FILLER_0_23_273
*677 FILLER_0_23_279
*678 FILLER_0_23_281
*679 FILLER_0_23_293
*680 FILLER_0_23_3
*681 FILLER_0_23_305
*682 FILLER_0_23_317
*683 FILLER_0_23_329
*684 FILLER_0_23_335
*685 FILLER_0_23_337
*686 FILLER_0_23_349
*687 FILLER_0_23_39
*688 FILLER_0_23_51
*689 FILLER_0_23_55
*690 FILLER_0_23_57
*691 FILLER_0_23_69
*692 FILLER_0_23_81
*693 FILLER_0_23_93
*694 FILLER_0_24_109
*695 FILLER_0_24_121
*696 FILLER_0_24_133
*697 FILLER_0_24_139
*698 FILLER_0_24_141
*699 FILLER_0_24_15
*700 FILLER_0_24_153
*701 FILLER_0_24_165
*702 FILLER_0_24_177
*703 FILLER_0_24_189
*704 FILLER_0_24_195
*705 FILLER_0_24_197
*706 FILLER_0_24_209
*707 FILLER_0_24_221
*708 FILLER_0_24_233
*709 FILLER_0_24_245
*710 FILLER_0_24_251
*711 FILLER_0_24_253
*712 FILLER_0_24_265
*713 FILLER_0_24_27
*714 FILLER_0_24_277
*715 FILLER_0_24_289
*716 FILLER_0_24_29
*717 FILLER_0_24_3
*718 FILLER_0_24_301
*719 FILLER_0_24_307
*720 FILLER_0_24_309
*721 FILLER_0_24_321
*722 FILLER_0_24_333
*723 FILLER_0_24_345
*724 FILLER_0_24_41
*725 FILLER_0_24_53
*726 FILLER_0_24_65
*727 FILLER_0_24_77
*728 FILLER_0_24_83
*729 FILLER_0_24_85
*730 FILLER_0_24_97
*731 FILLER_0_25_105
*732 FILLER_0_25_111
*733 FILLER_0_25_113
*734 FILLER_0_25_125
*735 FILLER_0_25_137
*736 FILLER_0_25_149
*737 FILLER_0_25_15
*738 FILLER_0_25_161
*739 FILLER_0_25_167
*740 FILLER_0_25_169
*741 FILLER_0_25_181
*742 FILLER_0_25_193
*743 FILLER_0_25_205
*744 FILLER_0_25_217
*745 FILLER_0_25_223
*746 FILLER_0_25_225
*747 FILLER_0_25_237
*748 FILLER_0_25_249
*749 FILLER_0_25_261
*750 FILLER_0_25_27
*751 FILLER_0_25_273
*752 FILLER_0_25_279
*753 FILLER_0_25_281
*754 FILLER_0_25_293
*755 FILLER_0_25_3
*756 FILLER_0_25_305
*757 FILLER_0_25_317
*758 FILLER_0_25_329
*759 FILLER_0_25_335
*760 FILLER_0_25_337
*761 FILLER_0_25_349
*762 FILLER_0_25_39
*763 FILLER_0_25_51
*764 FILLER_0_25_55
*765 FILLER_0_25_57
*766 FILLER_0_25_69
*767 FILLER_0_25_81
*768 FILLER_0_25_93
*769 FILLER_0_26_109
*770 FILLER_0_26_121
*771 FILLER_0_26_133
*772 FILLER_0_26_139
*773 FILLER_0_26_141
*774 FILLER_0_26_15
*775 FILLER_0_26_153
*776 FILLER_0_26_165
*777 FILLER_0_26_177
*778 FILLER_0_26_189
*779 FILLER_0_26_195
*780 FILLER_0_26_197
*781 FILLER_0_26_209
*782 FILLER_0_26_221
*783 FILLER_0_26_233
*784 FILLER_0_26_245
*785 FILLER_0_26_251
*786 FILLER_0_26_253
*787 FILLER_0_26_265
*788 FILLER_0_26_27
*789 FILLER_0_26_277
*790 FILLER_0_26_289
*791 FILLER_0_26_29
*792 FILLER_0_26_3
*793 FILLER_0_26_301
*794 FILLER_0_26_307
*795 FILLER_0_26_309
*796 FILLER_0_26_321
*797 FILLER_0_26_333
*798 FILLER_0_26_345
*799 FILLER_0_26_41
*800 FILLER_0_26_53
*801 FILLER_0_26_65
*802 FILLER_0_26_77
*803 FILLER_0_26_83
*804 FILLER_0_26_85
*805 FILLER_0_26_97
*806 FILLER_0_27_105
*807 FILLER_0_27_111
*808 FILLER_0_27_113
*809 FILLER_0_27_125
*810 FILLER_0_27_137
*811 FILLER_0_27_149
*812 FILLER_0_27_15
*813 FILLER_0_27_161
*814 FILLER_0_27_167
*815 FILLER_0_27_169
*816 FILLER_0_27_181
*817 FILLER_0_27_193
*818 FILLER_0_27_205
*819 FILLER_0_27_217
*820 FILLER_0_27_223
*821 FILLER_0_27_225
*822 FILLER_0_27_237
*823 FILLER_0_27_249
*824 FILLER_0_27_261
*825 FILLER_0_27_27
*826 FILLER_0_27_273
*827 FILLER_0_27_279
*828 FILLER_0_27_281
*829 FILLER_0_27_293
*830 FILLER_0_27_3
*831 FILLER_0_27_305
*832 FILLER_0_27_317
*833 FILLER_0_27_329
*834 FILLER_0_27_335
*835 FILLER_0_27_337
*836 FILLER_0_27_349
*837 FILLER_0_27_39
*838 FILLER_0_27_51
*839 FILLER_0_27_55
*840 FILLER_0_27_57
*841 FILLER_0_27_69
*842 FILLER_0_27_81
*843 FILLER_0_27_93
*844 FILLER_0_28_109
*845 FILLER_0_28_121
*846 FILLER_0_28_133
*847 FILLER_0_28_139
*848 FILLER_0_28_141
*849 FILLER_0_28_15
*850 FILLER_0_28_153
*851 FILLER_0_28_165
*852 FILLER_0_28_177
*853 FILLER_0_28_189
*854 FILLER_0_28_195
*855 FILLER_0_28_197
*856 FILLER_0_28_209
*857 FILLER_0_28_221
*858 FILLER_0_28_233
*859 FILLER_0_28_245
*860 FILLER_0_28_251
*861 FILLER_0_28_253
*862 FILLER_0_28_265
*863 FILLER_0_28_27
*864 FILLER_0_28_277
*865 FILLER_0_28_289
*866 FILLER_0_28_29
*867 FILLER_0_28_3
*868 FILLER_0_28_301
*869 FILLER_0_28_307
*870 FILLER_0_28_309
*871 FILLER_0_28_321
*872 FILLER_0_28_333
*873 FILLER_0_28_345
*874 FILLER_0_28_41
*875 FILLER_0_28_53
*876 FILLER_0_28_65
*877 FILLER_0_28_77
*878 FILLER_0_28_83
*879 FILLER_0_28_85
*880 FILLER_0_28_97
*881 FILLER_0_29_105
*882 FILLER_0_29_111
*883 FILLER_0_29_113
*884 FILLER_0_29_125
*885 FILLER_0_29_137
*886 FILLER_0_29_149
*887 FILLER_0_29_15
*888 FILLER_0_29_161
*889 FILLER_0_29_167
*890 FILLER_0_29_169
*891 FILLER_0_29_181
*892 FILLER_0_29_193
*893 FILLER_0_29_205
*894 FILLER_0_29_217
*895 FILLER_0_29_223
*896 FILLER_0_29_225
*897 FILLER_0_29_237
*898 FILLER_0_29_249
*899 FILLER_0_29_261
*900 FILLER_0_29_27
*901 FILLER_0_29_273
*902 FILLER_0_29_279
*903 FILLER_0_29_281
*904 FILLER_0_29_293
*905 FILLER_0_29_3
*906 FILLER_0_29_305
*907 FILLER_0_29_317
*908 FILLER_0_29_329
*909 FILLER_0_29_335
*910 FILLER_0_29_337
*911 FILLER_0_29_349
*912 FILLER_0_29_39
*913 FILLER_0_29_51
*914 FILLER_0_29_55
*915 FILLER_0_29_57
*916 FILLER_0_29_69
*917 FILLER_0_29_81
*918 FILLER_0_29_93
*919 FILLER_0_2_109
*920 FILLER_0_2_121
*921 FILLER_0_2_133
*922 FILLER_0_2_139
*923 FILLER_0_2_141
*924 FILLER_0_2_15
*925 FILLER_0_2_153
*926 FILLER_0_2_165
*927 FILLER_0_2_177
*928 FILLER_0_2_189
*929 FILLER_0_2_195
*930 FILLER_0_2_197
*931 FILLER_0_2_209
*932 FILLER_0_2_221
*933 FILLER_0_2_233
*934 FILLER_0_2_245
*935 FILLER_0_2_251
*936 FILLER_0_2_253
*937 FILLER_0_2_265
*938 FILLER_0_2_27
*939 FILLER_0_2_277
*940 FILLER_0_2_289
*941 FILLER_0_2_29
*942 FILLER_0_2_3
*943 FILLER_0_2_301
*944 FILLER_0_2_307
*945 FILLER_0_2_309
*946 FILLER_0_2_321
*947 FILLER_0_2_333
*948 FILLER_0_2_345
*949 FILLER_0_2_41
*950 FILLER_0_2_53
*951 FILLER_0_2_65
*952 FILLER_0_2_77
*953 FILLER_0_2_83
*954 FILLER_0_2_85
*955 FILLER_0_2_97
*956 FILLER_0_30_109
*957 FILLER_0_30_121
*958 FILLER_0_30_133
*959 FILLER_0_30_139
*960 FILLER_0_30_141
*961 FILLER_0_30_15
*962 FILLER_0_30_153
*963 FILLER_0_30_165
*964 FILLER_0_30_177
*965 FILLER_0_30_189
*966 FILLER_0_30_195
*967 FILLER_0_30_197
*968 FILLER_0_30_209
*969 FILLER_0_30_221
*970 FILLER_0_30_233
*971 FILLER_0_30_245
*972 FILLER_0_30_251
*973 FILLER_0_30_253
*974 FILLER_0_30_265
*975 FILLER_0_30_27
*976 FILLER_0_30_277
*977 FILLER_0_30_289
*978 FILLER_0_30_29
*979 FILLER_0_30_3
*980 FILLER_0_30_301
*981 FILLER_0_30_307
*982 FILLER_0_30_309
*983 FILLER_0_30_321
*984 FILLER_0_30_333
*985 FILLER_0_30_345
*986 FILLER_0_30_41
*987 FILLER_0_30_53
*988 FILLER_0_30_65
*989 FILLER_0_30_77
*990 FILLER_0_30_83
*991 FILLER_0_30_85
*992 FILLER_0_30_97
*993 FILLER_0_31_105
*994 FILLER_0_31_111
*995 FILLER_0_31_113
*996 FILLER_0_31_125
*997 FILLER_0_31_137
*998 FILLER_0_31_149
*999 FILLER_0_31_15
*1000 FILLER_0_31_161
*1001 FILLER_0_31_167
*1002 FILLER_0_31_169
*1003 FILLER_0_31_181
*1004 FILLER_0_31_193
*1005 FILLER_0_31_205
*1006 FILLER_0_31_217
*1007 FILLER_0_31_223
*1008 FILLER_0_31_225
*1009 FILLER_0_31_237
*1010 FILLER_0_31_249
*1011 FILLER_0_31_261
*1012 FILLER_0_31_27
*1013 FILLER_0_31_273
*1014 FILLER_0_31_279
*1015 FILLER_0_31_281
*1016 FILLER_0_31_293
*1017 FILLER_0_31_3
*1018 FILLER_0_31_305
*1019 FILLER_0_31_317
*1020 FILLER_0_31_329
*1021 FILLER_0_31_335
*1022 FILLER_0_31_337
*1023 FILLER_0_31_349
*1024 FILLER_0_31_39
*1025 FILLER_0_31_51
*1026 FILLER_0_31_55
*1027 FILLER_0_31_57
*1028 FILLER_0_31_69
*1029 FILLER_0_31_81
*1030 FILLER_0_31_93
*1031 FILLER_0_32_109
*1032 FILLER_0_32_121
*1033 FILLER_0_32_133
*1034 FILLER_0_32_139
*1035 FILLER_0_32_141
*1036 FILLER_0_32_15
*1037 FILLER_0_32_153
*1038 FILLER_0_32_165
*1039 FILLER_0_32_177
*1040 FILLER_0_32_189
*1041 FILLER_0_32_195
*1042 FILLER_0_32_197
*1043 FILLER_0_32_209
*1044 FILLER_0_32_221
*1045 FILLER_0_32_233
*1046 FILLER_0_32_245
*1047 FILLER_0_32_251
*1048 FILLER_0_32_253
*1049 FILLER_0_32_265
*1050 FILLER_0_32_27
*1051 FILLER_0_32_277
*1052 FILLER_0_32_289
*1053 FILLER_0_32_29
*1054 FILLER_0_32_3
*1055 FILLER_0_32_301
*1056 FILLER_0_32_307
*1057 FILLER_0_32_309
*1058 FILLER_0_32_321
*1059 FILLER_0_32_333
*1060 FILLER_0_32_345
*1061 FILLER_0_32_41
*1062 FILLER_0_32_53
*1063 FILLER_0_32_65
*1064 FILLER_0_32_77
*1065 FILLER_0_32_83
*1066 FILLER_0_32_85
*1067 FILLER_0_32_97
*1068 FILLER_0_33_105
*1069 FILLER_0_33_111
*1070 FILLER_0_33_113
*1071 FILLER_0_33_125
*1072 FILLER_0_33_137
*1073 FILLER_0_33_149
*1074 FILLER_0_33_15
*1075 FILLER_0_33_161
*1076 FILLER_0_33_167
*1077 FILLER_0_33_169
*1078 FILLER_0_33_181
*1079 FILLER_0_33_193
*1080 FILLER_0_33_205
*1081 FILLER_0_33_217
*1082 FILLER_0_33_223
*1083 FILLER_0_33_225
*1084 FILLER_0_33_237
*1085 FILLER_0_33_249
*1086 FILLER_0_33_261
*1087 FILLER_0_33_27
*1088 FILLER_0_33_273
*1089 FILLER_0_33_279
*1090 FILLER_0_33_281
*1091 FILLER_0_33_293
*1092 FILLER_0_33_3
*1093 FILLER_0_33_305
*1094 FILLER_0_33_317
*1095 FILLER_0_33_329
*1096 FILLER_0_33_335
*1097 FILLER_0_33_337
*1098 FILLER_0_33_349
*1099 FILLER_0_33_39
*1100 FILLER_0_33_51
*1101 FILLER_0_33_55
*1102 FILLER_0_33_57
*1103 FILLER_0_33_69
*1104 FILLER_0_33_81
*1105 FILLER_0_33_93
*1106 FILLER_0_34_109
*1107 FILLER_0_34_121
*1108 FILLER_0_34_133
*1109 FILLER_0_34_139
*1110 FILLER_0_34_141
*1111 FILLER_0_34_15
*1112 FILLER_0_34_153
*1113 FILLER_0_34_165
*1114 FILLER_0_34_177
*1115 FILLER_0_34_189
*1116 FILLER_0_34_195
*1117 FILLER_0_34_197
*1118 FILLER_0_34_209
*1119 FILLER_0_34_221
*1120 FILLER_0_34_233
*1121 FILLER_0_34_245
*1122 FILLER_0_34_251
*1123 FILLER_0_34_253
*1124 FILLER_0_34_265
*1125 FILLER_0_34_27
*1126 FILLER_0_34_277
*1127 FILLER_0_34_289
*1128 FILLER_0_34_29
*1129 FILLER_0_34_3
*1130 FILLER_0_34_301
*1131 FILLER_0_34_307
*1132 FILLER_0_34_309
*1133 FILLER_0_34_321
*1134 FILLER_0_34_333
*1135 FILLER_0_34_345
*1136 FILLER_0_34_41
*1137 FILLER_0_34_53
*1138 FILLER_0_34_65
*1139 FILLER_0_34_77
*1140 FILLER_0_34_83
*1141 FILLER_0_34_85
*1142 FILLER_0_34_97
*1143 FILLER_0_35_105
*1144 FILLER_0_35_111
*1145 FILLER_0_35_113
*1146 FILLER_0_35_125
*1147 FILLER_0_35_137
*1148 FILLER_0_35_149
*1149 FILLER_0_35_15
*1150 FILLER_0_35_161
*1151 FILLER_0_35_167
*1152 FILLER_0_35_169
*1153 FILLER_0_35_181
*1154 FILLER_0_35_193
*1155 FILLER_0_35_205
*1156 FILLER_0_35_220
*1157 FILLER_0_35_225
*1158 FILLER_0_35_237
*1159 FILLER_0_35_249
*1160 FILLER_0_35_261
*1161 FILLER_0_35_27
*1162 FILLER_0_35_273
*1163 FILLER_0_35_279
*1164 FILLER_0_35_281
*1165 FILLER_0_35_293
*1166 FILLER_0_35_3
*1167 FILLER_0_35_305
*1168 FILLER_0_35_317
*1169 FILLER_0_35_329
*1170 FILLER_0_35_335
*1171 FILLER_0_35_337
*1172 FILLER_0_35_349
*1173 FILLER_0_35_39
*1174 FILLER_0_35_51
*1175 FILLER_0_35_55
*1176 FILLER_0_35_57
*1177 FILLER_0_35_69
*1178 FILLER_0_35_81
*1179 FILLER_0_35_93
*1180 FILLER_0_36_109
*1181 FILLER_0_36_121
*1182 FILLER_0_36_133
*1183 FILLER_0_36_139
*1184 FILLER_0_36_141
*1185 FILLER_0_36_15
*1186 FILLER_0_36_153
*1187 FILLER_0_36_160
*1188 FILLER_0_36_172
*1189 FILLER_0_36_184
*1190 FILLER_0_36_197
*1191 FILLER_0_36_228
*1192 FILLER_0_36_243
*1193 FILLER_0_36_251
*1194 FILLER_0_36_260
*1195 FILLER_0_36_27
*1196 FILLER_0_36_272
*1197 FILLER_0_36_284
*1198 FILLER_0_36_288
*1199 FILLER_0_36_29
*1200 FILLER_0_36_3
*1201 FILLER_0_36_309
*1202 FILLER_0_36_317
*1203 FILLER_0_36_323
*1204 FILLER_0_36_41
*1205 FILLER_0_36_53
*1206 FILLER_0_36_65
*1207 FILLER_0_36_77
*1208 FILLER_0_36_83
*1209 FILLER_0_36_85
*1210 FILLER_0_36_97
*1211 FILLER_0_37_105
*1212 FILLER_0_37_111
*1213 FILLER_0_37_113
*1214 FILLER_0_37_125
*1215 FILLER_0_37_137
*1216 FILLER_0_37_149
*1217 FILLER_0_37_15
*1218 FILLER_0_37_172
*1219 FILLER_0_37_176
*1220 FILLER_0_37_197
*1221 FILLER_0_37_205
*1222 FILLER_0_37_217
*1223 FILLER_0_37_223
*1224 FILLER_0_37_251
*1225 FILLER_0_37_27
*1226 FILLER_0_37_270
*1227 FILLER_0_37_275
*1228 FILLER_0_37_297
*1229 FILLER_0_37_3
*1230 FILLER_0_37_306
*1231 FILLER_0_37_310
*1232 FILLER_0_37_333
*1233 FILLER_0_37_340
*1234 FILLER_0_37_39
*1235 FILLER_0_37_51
*1236 FILLER_0_37_55
*1237 FILLER_0_37_57
*1238 FILLER_0_37_69
*1239 FILLER_0_37_81
*1240 FILLER_0_37_93
*1241 FILLER_0_38_102
*1242 FILLER_0_38_106
*1243 FILLER_0_38_110
*1244 FILLER_0_38_113
*1245 FILLER_0_38_118
*1246 FILLER_0_38_122
*1247 FILLER_0_38_126
*1248 FILLER_0_38_138
*1249 FILLER_0_38_14
*1250 FILLER_0_38_145
*1251 FILLER_0_38_152
*1252 FILLER_0_38_159
*1253 FILLER_0_38_164
*1254 FILLER_0_38_169
*1255 FILLER_0_38_177
*1256 FILLER_0_38_18
*1257 FILLER_0_38_184
*1258 FILLER_0_38_194
*1259 FILLER_0_38_197
*1260 FILLER_0_38_219
*1261 FILLER_0_38_22
*1262 FILLER_0_38_223
*1263 FILLER_0_38_225
*1264 FILLER_0_38_233
*1265 FILLER_0_38_245
*1266 FILLER_0_38_251
*1267 FILLER_0_38_253
*1268 FILLER_0_38_263
*1269 FILLER_0_38_270
*1270 FILLER_0_38_274
*1271 FILLER_0_38_278
*1272 FILLER_0_38_287
*1273 FILLER_0_38_294
*1274 FILLER_0_38_3
*1275 FILLER_0_38_32
*1276 FILLER_0_38_329
*1277 FILLER_0_38_335
*1278 FILLER_0_38_337
*1279 FILLER_0_38_349
*1280 FILLER_0_38_38
*1281 FILLER_0_38_42
*1282 FILLER_0_38_46
*1283 FILLER_0_38_50
*1284 FILLER_0_38_54
*1285 FILLER_0_38_57
*1286 FILLER_0_38_62
*1287 FILLER_0_38_66
*1288 FILLER_0_38_70
*1289 FILLER_0_38_74
*1290 FILLER_0_38_78
*1291 FILLER_0_38_88
*1292 FILLER_0_38_94
*1293 FILLER_0_38_98
*1294 FILLER_0_3_105
*1295 FILLER_0_3_111
*1296 FILLER_0_3_113
*1297 FILLER_0_3_125
*1298 FILLER_0_3_137
*1299 FILLER_0_3_149
*1300 FILLER_0_3_15
*1301 FILLER_0_3_161
*1302 FILLER_0_3_167
*1303 FILLER_0_3_169
*1304 FILLER_0_3_181
*1305 FILLER_0_3_193
*1306 FILLER_0_3_205
*1307 FILLER_0_3_217
*1308 FILLER_0_3_223
*1309 FILLER_0_3_225
*1310 FILLER_0_3_237
*1311 FILLER_0_3_249
*1312 FILLER_0_3_261
*1313 FILLER_0_3_27
*1314 FILLER_0_3_273
*1315 FILLER_0_3_279
*1316 FILLER_0_3_281
*1317 FILLER_0_3_293
*1318 FILLER_0_3_3
*1319 FILLER_0_3_305
*1320 FILLER_0_3_317
*1321 FILLER_0_3_329
*1322 FILLER_0_3_335
*1323 FILLER_0_3_337
*1324 FILLER_0_3_349
*1325 FILLER_0_3_39
*1326 FILLER_0_3_51
*1327 FILLER_0_3_55
*1328 FILLER_0_3_57
*1329 FILLER_0_3_69
*1330 FILLER_0_3_81
*1331 FILLER_0_3_93
*1332 FILLER_0_4_109
*1333 FILLER_0_4_121
*1334 FILLER_0_4_133
*1335 FILLER_0_4_139
*1336 FILLER_0_4_141
*1337 FILLER_0_4_15
*1338 FILLER_0_4_153
*1339 FILLER_0_4_165
*1340 FILLER_0_4_177
*1341 FILLER_0_4_189
*1342 FILLER_0_4_195
*1343 FILLER_0_4_197
*1344 FILLER_0_4_209
*1345 FILLER_0_4_221
*1346 FILLER_0_4_233
*1347 FILLER_0_4_245
*1348 FILLER_0_4_251
*1349 FILLER_0_4_253
*1350 FILLER_0_4_265
*1351 FILLER_0_4_27
*1352 FILLER_0_4_277
*1353 FILLER_0_4_289
*1354 FILLER_0_4_29
*1355 FILLER_0_4_3
*1356 FILLER_0_4_301
*1357 FILLER_0_4_307
*1358 FILLER_0_4_309
*1359 FILLER_0_4_321
*1360 FILLER_0_4_333
*1361 FILLER_0_4_345
*1362 FILLER_0_4_41
*1363 FILLER_0_4_53
*1364 FILLER_0_4_65
*1365 FILLER_0_4_77
*1366 FILLER_0_4_83
*1367 FILLER_0_4_85
*1368 FILLER_0_4_97
*1369 FILLER_0_5_105
*1370 FILLER_0_5_111
*1371 FILLER_0_5_113
*1372 FILLER_0_5_125
*1373 FILLER_0_5_137
*1374 FILLER_0_5_149
*1375 FILLER_0_5_15
*1376 FILLER_0_5_161
*1377 FILLER_0_5_167
*1378 FILLER_0_5_169
*1379 FILLER_0_5_181
*1380 FILLER_0_5_193
*1381 FILLER_0_5_205
*1382 FILLER_0_5_217
*1383 FILLER_0_5_223
*1384 FILLER_0_5_225
*1385 FILLER_0_5_237
*1386 FILLER_0_5_249
*1387 FILLER_0_5_261
*1388 FILLER_0_5_27
*1389 FILLER_0_5_273
*1390 FILLER_0_5_279
*1391 FILLER_0_5_281
*1392 FILLER_0_5_293
*1393 FILLER_0_5_3
*1394 FILLER_0_5_305
*1395 FILLER_0_5_317
*1396 FILLER_0_5_329
*1397 FILLER_0_5_335
*1398 FILLER_0_5_337
*1399 FILLER_0_5_349
*1400 FILLER_0_5_39
*1401 FILLER_0_5_51
*1402 FILLER_0_5_55
*1403 FILLER_0_5_57
*1404 FILLER_0_5_69
*1405 FILLER_0_5_81
*1406 FILLER_0_5_93
*1407 FILLER_0_6_109
*1408 FILLER_0_6_121
*1409 FILLER_0_6_133
*1410 FILLER_0_6_139
*1411 FILLER_0_6_141
*1412 FILLER_0_6_15
*1413 FILLER_0_6_153
*1414 FILLER_0_6_165
*1415 FILLER_0_6_177
*1416 FILLER_0_6_189
*1417 FILLER_0_6_195
*1418 FILLER_0_6_197
*1419 FILLER_0_6_209
*1420 FILLER_0_6_221
*1421 FILLER_0_6_233
*1422 FILLER_0_6_245
*1423 FILLER_0_6_251
*1424 FILLER_0_6_253
*1425 FILLER_0_6_265
*1426 FILLER_0_6_27
*1427 FILLER_0_6_277
*1428 FILLER_0_6_289
*1429 FILLER_0_6_29
*1430 FILLER_0_6_3
*1431 FILLER_0_6_301
*1432 FILLER_0_6_307
*1433 FILLER_0_6_309
*1434 FILLER_0_6_321
*1435 FILLER_0_6_333
*1436 FILLER_0_6_345
*1437 FILLER_0_6_41
*1438 FILLER_0_6_53
*1439 FILLER_0_6_65
*1440 FILLER_0_6_77
*1441 FILLER_0_6_83
*1442 FILLER_0_6_85
*1443 FILLER_0_6_97
*1444 FILLER_0_7_105
*1445 FILLER_0_7_111
*1446 FILLER_0_7_113
*1447 FILLER_0_7_125
*1448 FILLER_0_7_137
*1449 FILLER_0_7_149
*1450 FILLER_0_7_15
*1451 FILLER_0_7_161
*1452 FILLER_0_7_167
*1453 FILLER_0_7_169
*1454 FILLER_0_7_181
*1455 FILLER_0_7_193
*1456 FILLER_0_7_205
*1457 FILLER_0_7_217
*1458 FILLER_0_7_223
*1459 FILLER_0_7_225
*1460 FILLER_0_7_237
*1461 FILLER_0_7_249
*1462 FILLER_0_7_261
*1463 FILLER_0_7_27
*1464 FILLER_0_7_273
*1465 FILLER_0_7_279
*1466 FILLER_0_7_281
*1467 FILLER_0_7_293
*1468 FILLER_0_7_3
*1469 FILLER_0_7_305
*1470 FILLER_0_7_317