*SPEF "ieee 1481-1999"
*DESIGN "tt_um_zeptobars"
*DATE "11:11:11 Fri 11 11, 1111"
*VENDOR "OpenRCX"
*PROGRAM "Parallel Extraction"
*VERSION "1.0"
*DESIGN_FLOW "NAME_SCOPE LOCAL" "PIN_CAP NONE"
*DIVIDER /
*DELIMITER :
*BUS_DELIMITER []
*T_UNIT 1 NS
*C_UNIT 1 PF
*R_UNIT 1 OHM
*L_UNIT 1 HENRY

*NAME_MAP
*3 clk
*4 ena
*5 rst_n
*6 ui_in[0]
*7 ui_in[1]
*8 ui_in[2]
*9 ui_in[3]
*10 ui_in[4]
*11 ui_in[5]
*12 ui_in[6]
*13 ui_in[7]
*14 uio_in[0]
*15 uio_in[1]
*16 uio_in[2]
*17 uio_in[3]
*18 uio_in[4]
*19 uio_in[5]
*20 uio_in[6]
*21 uio_in[7]
*22 net9
*23 net10
*24 net11
*25 net12
*26 net13
*27 net14
*28 net15
*29 net16
*30 net17
*31 net18
*32 net19
*33 net20
*34 net21
*35 net22
*36 net23
*37 net24
*38 uo_out[0]
*39 uo_out[1]
*40 uo_out[2]
*41 uo_out[3]
*42 uo_out[4]
*43 uo_out[5]
*44 uo_out[6]
*45 uo_out[7]
*46 _000_
*47 _001_
*48 _002_
*49 _003_
*50 _004_
*51 _005_
*52 _006_
*53 _007_
*54 _008_
*55 _009_
*56 _010_
*57 _011_
*58 _012_
*59 _013_
*60 _014_
*61 _015_
*62 _016_
*63 _017_
*64 _018_
*65 _019_
*66 _020_
*67 _021_
*68 _022_
*69 _023_
*70 _024_
*71 _025_
*72 _026_
*73 _027_
*74 _028_
*75 _029_
*76 _030_
*77 _031_
*78 _032_
*79 _033_
*80 _034_
*81 _035_
*82 _036_
*83 _037_
*84 _038_
*85 _039_
*86 _040_
*87 _041_
*88 _042_
*89 _043_
*90 _044_
*91 _045_
*92 _046_
*93 _047_
*94 _048_
*95 _049_
*96 _050_
*97 _051_
*98 _052_
*99 _053_
*100 _054_
*101 _055_
*102 _056_
*103 _057_
*104 _058_
*105 _059_
*106 _060_
*107 _061_
*108 _062_
*109 _063_
*110 _064_
*111 _065_
*112 _066_
*113 _067_
*114 _068_
*115 _069_
*116 _070_
*117 _071_
*118 _072_
*119 _073_
*120 _074_
*121 _075_
*122 _076_
*123 _077_
*124 _078_
*125 _079_
*126 _080_
*127 _081_
*128 _082_
*129 _083_
*130 _084_
*131 _085_
*132 _086_
*133 _087_
*134 _088_
*135 _089_
*136 _090_
*137 _091_
*138 _092_
*139 _093_
*140 _094_
*141 _095_
*142 _096_
*143 _097_
*144 _098_
*145 _099_
*146 _100_
*147 _101_
*148 _102_
*149 _103_
*150 _104_
*151 _105_
*152 _106_
*153 _107_
*154 _108_
*155 _109_
*156 _110_
*157 _111_
*158 _112_
*159 _113_
*160 _114_
*161 _115_
*162 _116_
*163 _117_
*164 _118_
*165 _119_
*166 _120_
*167 _121_
*168 _122_
*169 _123_
*170 _124_
*171 c1_1
*172 c2_1
*173 c4_1
*174 c5_1
*175 c6_1
*176 c7_1
*177 clknet_0_clk
*178 clknet_1_0__leaf_clk
*179 clknet_1_1__leaf_clk
*180 data\[0\]
*181 data\[1\]
*182 data\[2\]
*183 data\[3\]
*184 data\[4\]
*185 data\[5\]
*186 data\[6\]
*187 data\[7\]
*188 data\[8\]
*189 net1
*190 net2
*191 net25
*192 net26
*193 net3
*194 net4
*195 net5
*196 net6
*197 net7
*198 net8
*199 random_out
*200 selected_clock
*201 shifter\[0\]
*202 shifter\[10\]
*203 shifter\[11\]
*204 shifter\[1\]
*205 shifter\[2\]
*206 shifter\[3\]
*207 shifter\[4\]
*208 shifter\[5\]
*209 shifter\[6\]
*210 shifter\[7\]
*211 shifter\[8\]
*212 shifter\[9\]
*213 tmp0\.data\[0\]
*214 tmp0\.data\[1\]
*215 tmp1\.data\[0\]
*216 tmp1\.data\[1\]
*217 tmp2\.data\[0\]
*218 tmp2\.data\[1\]
*219 tmp3\.clk
*220 tmp3\.data\[0\]
*221 tmp3\.data\[1\]
*222 tmp4\.clk
*223 tmp4\.data\[0\]
*224 tmp4\.data\[1\]
*225 tmp5\.data\[0\]
*226 tmp5\.data\[1\]
*227 tmp6\.data\[0\]
*228 tmp6\.data\[1\]
*229 tmp7\.data\[0\]
*230 tmp7\.data\[1\]
*231 FILLER_0_0_109
*232 FILLER_0_0_113
*233 FILLER_0_0_125
*234 FILLER_0_0_137
*235 FILLER_0_0_141
*236 FILLER_0_0_15
*237 FILLER_0_0_153
*238 FILLER_0_0_165
*239 FILLER_0_0_169
*240 FILLER_0_0_181
*241 FILLER_0_0_193
*242 FILLER_0_0_197
*243 FILLER_0_0_209
*244 FILLER_0_0_221
*245 FILLER_0_0_225
*246 FILLER_0_0_237
*247 FILLER_0_0_249
*248 FILLER_0_0_253
*249 FILLER_0_0_265
*250 FILLER_0_0_27
*251 FILLER_0_0_277
*252 FILLER_0_0_281
*253 FILLER_0_0_29
*254 FILLER_0_0_293
*255 FILLER_0_0_3
*256 FILLER_0_0_305
*257 FILLER_0_0_309
*258 FILLER_0_0_321
*259 FILLER_0_0_333
*260 FILLER_0_0_337
*261 FILLER_0_0_349
*262 FILLER_0_0_41
*263 FILLER_0_0_53
*264 FILLER_0_0_57
*265 FILLER_0_0_69
*266 FILLER_0_0_81
*267 FILLER_0_0_85
*268 FILLER_0_0_97
*269 FILLER_0_10_109
*270 FILLER_0_10_121
*271 FILLER_0_10_133
*272 FILLER_0_10_139
*273 FILLER_0_10_141
*274 FILLER_0_10_15
*275 FILLER_0_10_153
*276 FILLER_0_10_165
*277 FILLER_0_10_177
*278 FILLER_0_10_189
*279 FILLER_0_10_195
*280 FILLER_0_10_197
*281 FILLER_0_10_209
*282 FILLER_0_10_221
*283 FILLER_0_10_233
*284 FILLER_0_10_245
*285 FILLER_0_10_251
*286 FILLER_0_10_253
*287 FILLER_0_10_265
*288 FILLER_0_10_27
*289 FILLER_0_10_277
*290 FILLER_0_10_289
*291 FILLER_0_10_29
*292 FILLER_0_10_3
*293 FILLER_0_10_301
*294 FILLER_0_10_307
*295 FILLER_0_10_309
*296 FILLER_0_10_321
*297 FILLER_0_10_333
*298 FILLER_0_10_345
*299 FILLER_0_10_41
*300 FILLER_0_10_53
*301 FILLER_0_10_65
*302 FILLER_0_10_77
*303 FILLER_0_10_83
*304 FILLER_0_10_85
*305 FILLER_0_10_97
*306 FILLER_0_11_105
*307 FILLER_0_11_111
*308 FILLER_0_11_113
*309 FILLER_0_11_125
*310 FILLER_0_11_137
*311 FILLER_0_11_149
*312 FILLER_0_11_15
*313 FILLER_0_11_161
*314 FILLER_0_11_167
*315 FILLER_0_11_169
*316 FILLER_0_11_181
*317 FILLER_0_11_193
*318 FILLER_0_11_205
*319 FILLER_0_11_217
*320 FILLER_0_11_223
*321 FILLER_0_11_225
*322 FILLER_0_11_237
*323 FILLER_0_11_249
*324 FILLER_0_11_261
*325 FILLER_0_11_27
*326 FILLER_0_11_273
*327 FILLER_0_11_279
*328 FILLER_0_11_281
*329 FILLER_0_11_293
*330 FILLER_0_11_3
*331 FILLER_0_11_305
*332 FILLER_0_11_317
*333 FILLER_0_11_329
*334 FILLER_0_11_335
*335 FILLER_0_11_337
*336 FILLER_0_11_349
*337 FILLER_0_11_39
*338 FILLER_0_11_51
*339 FILLER_0_11_55
*340 FILLER_0_11_57
*341 FILLER_0_11_69
*342 FILLER_0_11_81
*343 FILLER_0_11_93
*344 FILLER_0_12_109
*345 FILLER_0_12_121
*346 FILLER_0_12_133
*347 FILLER_0_12_139
*348 FILLER_0_12_141
*349 FILLER_0_12_15
*350 FILLER_0_12_153
*351 FILLER_0_12_165
*352 FILLER_0_12_177
*353 FILLER_0_12_189
*354 FILLER_0_12_195
*355 FILLER_0_12_197
*356 FILLER_0_12_209
*357 FILLER_0_12_221
*358 FILLER_0_12_233
*359 FILLER_0_12_245
*360 FILLER_0_12_251
*361 FILLER_0_12_253
*362 FILLER_0_12_265
*363 FILLER_0_12_27
*364 FILLER_0_12_277
*365 FILLER_0_12_289
*366 FILLER_0_12_29
*367 FILLER_0_12_3
*368 FILLER_0_12_301
*369 FILLER_0_12_307
*370 FILLER_0_12_309
*371 FILLER_0_12_321
*372 FILLER_0_12_333
*373 FILLER_0_12_345
*374 FILLER_0_12_41
*375 FILLER_0_12_53
*376 FILLER_0_12_65
*377 FILLER_0_12_77
*378 FILLER_0_12_83
*379 FILLER_0_12_85
*380 FILLER_0_12_97
*381 FILLER_0_13_105
*382 FILLER_0_13_111
*383 FILLER_0_13_113
*384 FILLER_0_13_125
*385 FILLER_0_13_137
*386 FILLER_0_13_149
*387 FILLER_0_13_15
*388 FILLER_0_13_161
*389 FILLER_0_13_167
*390 FILLER_0_13_169
*391 FILLER_0_13_181
*392 FILLER_0_13_193
*393 FILLER_0_13_205
*394 FILLER_0_13_217
*395 FILLER_0_13_223
*396 FILLER_0_13_225
*397 FILLER_0_13_237
*398 FILLER_0_13_249
*399 FILLER_0_13_261
*400 FILLER_0_13_27
*401 FILLER_0_13_273
*402 FILLER_0_13_279
*403 FILLER_0_13_281
*404 FILLER_0_13_293
*405 FILLER_0_13_3
*406 FILLER_0_13_305
*407 FILLER_0_13_317
*408 FILLER_0_13_329
*409 FILLER_0_13_335
*410 FILLER_0_13_337
*411 FILLER_0_13_349
*412 FILLER_0_13_39
*413 FILLER_0_13_51
*414 FILLER_0_13_55
*415 FILLER_0_13_57
*416 FILLER_0_13_69
*417 FILLER_0_13_81
*418 FILLER_0_13_93
*419 FILLER_0_14_109
*420 FILLER_0_14_121
*421 FILLER_0_14_133
*422 FILLER_0_14_139
*423 FILLER_0_14_141
*424 FILLER_0_14_15
*425 FILLER_0_14_153
*426 FILLER_0_14_165
*427 FILLER_0_14_177
*428 FILLER_0_14_189
*429 FILLER_0_14_195
*430 FILLER_0_14_197
*431 FILLER_0_14_209
*432 FILLER_0_14_221
*433 FILLER_0_14_233
*434 FILLER_0_14_245
*435 FILLER_0_14_251
*436 FILLER_0_14_253
*437 FILLER_0_14_265
*438 FILLER_0_14_27
*439 FILLER_0_14_277
*440 FILLER_0_14_289
*441 FILLER_0_14_29
*442 FILLER_0_14_3
*443 FILLER_0_14_301
*444 FILLER_0_14_307
*445 FILLER_0_14_309
*446 FILLER_0_14_321
*447 FILLER_0_14_333
*448 FILLER_0_14_345
*449 FILLER_0_14_41
*450 FILLER_0_14_53
*451 FILLER_0_14_65
*452 FILLER_0_14_77
*453 FILLER_0_14_83
*454 FILLER_0_14_85
*455 FILLER_0_14_97
*456 FILLER_0_15_105
*457 FILLER_0_15_111
*458 FILLER_0_15_113
*459 FILLER_0_15_125
*460 FILLER_0_15_137
*461 FILLER_0_15_149
*462 FILLER_0_15_15
*463 FILLER_0_15_161
*464 FILLER_0_15_167
*465 FILLER_0_15_169
*466 FILLER_0_15_181
*467 FILLER_0_15_193
*468 FILLER_0_15_205
*469 FILLER_0_15_217
*470 FILLER_0_15_223
*471 FILLER_0_15_225
*472 FILLER_0_15_237
*473 FILLER_0_15_249
*474 FILLER_0_15_261
*475 FILLER_0_15_27
*476 FILLER_0_15_273
*477 FILLER_0_15_279
*478 FILLER_0_15_281
*479 FILLER_0_15_293
*480 FILLER_0_15_3
*481 FILLER_0_15_305
*482 FILLER_0_15_317
*483 FILLER_0_15_329
*484 FILLER_0_15_335
*485 FILLER_0_15_337
*486 FILLER_0_15_349
*487 FILLER_0_15_39
*488 FILLER_0_15_51
*489 FILLER_0_15_55
*490 FILLER_0_15_57
*491 FILLER_0_15_69
*492 FILLER_0_15_81
*493 FILLER_0_15_93
*494 FILLER_0_16_109
*495 FILLER_0_16_121
*496 FILLER_0_16_133
*497 FILLER_0_16_139
*498 FILLER_0_16_141
*499 FILLER_0_16_15
*500 FILLER_0_16_153
*501 FILLER_0_16_165
*502 FILLER_0_16_177
*503 FILLER_0_16_189
*504 FILLER_0_16_195
*505 FILLER_0_16_197
*506 FILLER_0_16_209
*507 FILLER_0_16_221
*508 FILLER_0_16_233
*509 FILLER_0_16_245
*510 FILLER_0_16_251
*511 FILLER_0_16_253
*512 FILLER_0_16_265
*513 FILLER_0_16_27
*514 FILLER_0_16_277
*515 FILLER_0_16_289
*516 FILLER_0_16_29
*517 FILLER_0_16_3
*518 FILLER_0_16_301
*519 FILLER_0_16_307
*520 FILLER_0_16_309
*521 FILLER_0_16_321
*522 FILLER_0_16_333
*523 FILLER_0_16_345
*524 FILLER_0_16_41
*525 FILLER_0_16_53
*526 FILLER_0_16_65
*527 FILLER_0_16_77
*528 FILLER_0_16_83
*529 FILLER_0_16_85
*530 FILLER_0_16_97
*531 FILLER_0_17_105
*532 FILLER_0_17_111
*533 FILLER_0_17_113
*534 FILLER_0_17_125
*535 FILLER_0_17_137
*536 FILLER_0_17_149
*537 FILLER_0_17_15
*538 FILLER_0_17_161
*539 FILLER_0_17_167
*540 FILLER_0_17_169
*541 FILLER_0_17_181
*542 FILLER_0_17_193
*543 FILLER_0_17_205
*544 FILLER_0_17_217
*545 FILLER_0_17_223
*546 FILLER_0_17_225
*547 FILLER_0_17_237
*548 FILLER_0_17_249
*549 FILLER_0_17_261
*550 FILLER_0_17_27
*551 FILLER_0_17_273
*552 FILLER_0_17_279
*553 FILLER_0_17_281
*554 FILLER_0_17_293
*555 FILLER_0_17_3
*556 FILLER_0_17_305
*557 FILLER_0_17_317
*558 FILLER_0_17_329
*559 FILLER_0_17_335
*560 FILLER_0_17_337
*561 FILLER_0_17_349
*562 FILLER_0_17_39
*563 FILLER_0_17_51
*564 FILLER_0_17_55
*565 FILLER_0_17_57
*566 FILLER_0_17_69
*567 FILLER_0_17_81
*568 FILLER_0_17_93
*569 FILLER_0_18_109
*570 FILLER_0_18_121
*571 FILLER_0_18_133
*572 FILLER_0_18_139
*573 FILLER_0_18_141
*574 FILLER_0_18_15
*575 FILLER_0_18_153
*576 FILLER_0_18_165
*577 FILLER_0_18_177
*578 FILLER_0_18_189
*579 FILLER_0_18_195
*580 FILLER_0_18_197
*581 FILLER_0_18_209
*582 FILLER_0_18_221
*583 FILLER_0_18_233
*584 FILLER_0_18_245
*585 FILLER_0_18_251
*586 FILLER_0_18_253
*587 FILLER_0_18_265
*588 FILLER_0_18_27
*589 FILLER_0_18_277
*590 FILLER_0_18_289
*591 FILLER_0_18_29
*592 FILLER_0_18_3
*593 FILLER_0_18_301
*594 FILLER_0_18_307
*595 FILLER_0_18_309
*596 FILLER_0_18_321
*597 FILLER_0_18_333
*598 FILLER_0_18_345
*599 FILLER_0_18_41
*600 FILLER_0_18_53
*601 FILLER_0_18_65
*602 FILLER_0_18_77
*603 FILLER_0_18_83
*604 FILLER_0_18_85
*605 FILLER_0_18_97
*606 FILLER_0_19_105
*607 FILLER_0_19_111
*608 FILLER_0_19_113
*609 FILLER_0_19_125
*610 FILLER_0_19_137
*611 FILLER_0_19_149
*612 FILLER_0_19_15
*613 FILLER_0_19_161
*614 FILLER_0_19_167
*615 FILLER_0_19_169
*616 FILLER_0_19_181
*617 FILLER_0_19_193
*618 FILLER_0_19_205
*619 FILLER_0_19_217
*620 FILLER_0_19_223
*621 FILLER_0_19_225
*622 FILLER_0_19_237
*623 FILLER_0_19_249
*624 FILLER_0_19_261
*625 FILLER_0_19_27
*626 FILLER_0_19_273
*627 FILLER_0_19_279
*628 FILLER_0_19_281
*629 FILLER_0_19_293
*630 FILLER_0_19_3
*631 FILLER_0_19_305
*632 FILLER_0_19_317
*633 FILLER_0_19_329
*634 FILLER_0_19_335
*635 FILLER_0_19_337
*636 FILLER_0_19_349
*637 FILLER_0_19_39
*638 FILLER_0_19_51
*639 FILLER_0_19_55
*640 FILLER_0_19_57
*641 FILLER_0_19_69
*642 FILLER_0_19_81
*643 FILLER_0_19_93
*644 FILLER_0_1_105
*645 FILLER_0_1_111
*646 FILLER_0_1_113
*647 FILLER_0_1_125
*648 FILLER_0_1_137
*649 FILLER_0_1_149
*650 FILLER_0_1_15
*651 FILLER_0_1_161
*652 FILLER_0_1_167
*653 FILLER_0_1_169
*654 FILLER_0_1_181
*655 FILLER_0_1_193
*656 FILLER_0_1_205
*657 FILLER_0_1_217
*658 FILLER_0_1_223
*659 FILLER_0_1_225
*660 FILLER_0_1_237
*661 FILLER_0_1_249
*662 FILLER_0_1_261
*663 FILLER_0_1_27
*664 FILLER_0_1_273
*665 FILLER_0_1_279
*666 FILLER_0_1_281
*667 FILLER_0_1_293
*668 FILLER_0_1_3
*669 FILLER_0_1_305
*670 FILLER_0_1_317
*671 FILLER_0_1_329
*672 FILLER_0_1_335
*673 FILLER_0_1_337
*674 FILLER_0_1_349
*675 FILLER_0_1_39
*676 FILLER_0_1_51
*677 FILLER_0_1_55
*678 FILLER_0_1_57
*679 FILLER_0_1_69
*680 FILLER_0_1_81
*681 FILLER_0_1_93
*682 FILLER_0_20_109
*683 FILLER_0_20_121
*684 FILLER_0_20_133
*685 FILLER_0_20_139
*686 FILLER_0_20_141
*687 FILLER_0_20_15
*688 FILLER_0_20_153
*689 FILLER_0_20_165
*690 FILLER_0_20_177
*691 FILLER_0_20_189
*692 FILLER_0_20_195
*693 FILLER_0_20_197
*694 FILLER_0_20_209
*695 FILLER_0_20_221
*696 FILLER_0_20_233
*697 FILLER_0_20_245
*698 FILLER_0_20_251
*699 FILLER_0_20_253
*700 FILLER_0_20_265
*701 FILLER_0_20_27
*702 FILLER_0_20_277
*703 FILLER_0_20_289
*704 FILLER_0_20_29
*705 FILLER_0_20_3
*706 FILLER_0_20_301
*707 FILLER_0_20_307
*708 FILLER_0_20_309
*709 FILLER_0_20_321
*710 FILLER_0_20_333
*711 FILLER_0_20_345
*712 FILLER_0_20_41
*713 FILLER_0_20_53
*714 FILLER_0_20_65
*715 FILLER_0_20_77
*716 FILLER_0_20_83
*717 FILLER_0_20_85
*718 FILLER_0_20_97
*719 FILLER_0_21_105
*720 FILLER_0_21_111
*721 FILLER_0_21_113
*722 FILLER_0_21_125
*723 FILLER_0_21_137
*724 FILLER_0_21_149
*725 FILLER_0_21_15
*726 FILLER_0_21_161
*727 FILLER_0_21_167
*728 FILLER_0_21_169
*729 FILLER_0_21_181
*730 FILLER_0_21_193
*731 FILLER_0_21_205
*732 FILLER_0_21_217
*733 FILLER_0_21_223
*734 FILLER_0_21_225
*735 FILLER_0_21_237
*736 FILLER_0_21_249
*737 FILLER_0_21_261
*738 FILLER_0_21_27
*739 FILLER_0_21_273
*740 FILLER_0_21_279
*741 FILLER_0_21_281
*742 FILLER_0_21_293
*743 FILLER_0_21_3
*744 FILLER_0_21_305
*745 FILLER_0_21_317
*746 FILLER_0_21_329
*747 FILLER_0_21_335
*748 FILLER_0_21_337
*749 FILLER_0_21_349
*750 FILLER_0_21_39
*751 FILLER_0_21_51
*752 FILLER_0_21_55
*753 FILLER_0_21_57
*754 FILLER_0_21_69
*755 FILLER_0_21_81
*756 FILLER_0_21_93
*757 FILLER_0_22_109
*758 FILLER_0_22_121
*759 FILLER_0_22_133
*760 FILLER_0_22_139
*761 FILLER_0_22_141
*762 FILLER_0_22_15
*763 FILLER_0_22_153
*764 FILLER_0_22_165
*765 FILLER_0_22_177
*766 FILLER_0_22_189
*767 FILLER_0_22_195
*768 FILLER_0_22_197
*769 FILLER_0_22_209
*770 FILLER_0_22_221
*771 FILLER_0_22_233
*772 FILLER_0_22_245
*773 FILLER_0_22_251
*774 FILLER_0_22_253
*775 FILLER_0_22_265
*776 FILLER_0_22_27
*777 FILLER_0_22_277
*778 FILLER_0_22_289
*779 FILLER_0_22_29
*780 FILLER_0_22_3
*781 FILLER_0_22_301
*782 FILLER_0_22_307
*783 FILLER_0_22_309
*784 FILLER_0_22_321
*785 FILLER_0_22_333
*786 FILLER_0_22_345
*787 FILLER_0_22_41
*788 FILLER_0_22_53
*789 FILLER_0_22_65
*790 FILLER_0_22_77
*791 FILLER_0_22_83
*792 FILLER_0_22_85
*793 FILLER_0_22_97
*794 FILLER_0_23_105
*795 FILLER_0_23_111
*796 FILLER_0_23_113
*797 FILLER_0_23_125
*798 FILLER_0_23_137
*799 FILLER_0_23_149
*800 FILLER_0_23_15
*801 FILLER_0_23_161
*802 FILLER_0_23_167
*803 FILLER_0_23_169
*804 FILLER_0_23_181
*805 FILLER_0_23_193
*806 FILLER_0_23_205
*807 FILLER_0_23_217
*808 FILLER_0_23_223
*809 FILLER_0_23_225
*810 FILLER_0_23_237
*811 FILLER_0_23_249
*812 FILLER_0_23_261
*813 FILLER_0_23_27
*814 FILLER_0_23_273
*815 FILLER_0_23_279
*816 FILLER_0_23_281
*817 FILLER_0_23_293
*818 FILLER_0_23_3
*819 FILLER_0_23_305
*820 FILLER_0_23_317
*821 FILLER_0_23_329
*822 FILLER_0_23_335
*823 FILLER_0_23_337
*824 FILLER_0_23_349
*825 FILLER_0_23_39
*826 FILLER_0_23_51
*827 FILLER_0_23_55
*828 FILLER_0_23_57
*829 FILLER_0_23_69
*830 FILLER_0_23_81
*831 FILLER_0_23_93
*832 FILLER_0_24_109
*833 FILLER_0_24_121
*834 FILLER_0_24_133
*835 FILLER_0_24_139
*836 FILLER_0_24_141
*837 FILLER_0_24_15
*838 FILLER_0_24_153
*839 FILLER_0_24_165
*840 FILLER_0_24_177
*841 FILLER_0_24_189
*842 FILLER_0_24_195
*843 FILLER_0_24_197
*844 FILLER_0_24_209
*845 FILLER_0_24_221
*846 FILLER_0_24_233
*847 FILLER_0_24_245
*848 FILLER_0_24_251
*849 FILLER_0_24_253
*850 FILLER_0_24_265
*851 FILLER_0_24_27
*852 FILLER_0_24_277
*853 FILLER_0_24_289
*854 FILLER_0_24_29
*855 FILLER_0_24_3
*856 FILLER_0_24_301
*857 FILLER_0_24_307
*858 FILLER_0_24_309
*859 FILLER_0_24_321
*860 FILLER_0_24_333
*861 FILLER_0_24_345
*862 FILLER_0_24_41
*863 FILLER_0_24_53
*864 FILLER_0_24_65
*865 FILLER_0_24_77
*866 FILLER_0_24_83
*867 FILLER_0_24_85
*868 FILLER_0_24_97
*869 FILLER_0_25_105
*870 FILLER_0_25_111
*871 FILLER_0_25_113
*872 FILLER_0_25_125
*873 FILLER_0_25_137
*874 FILLER_0_25_149
*875 FILLER_0_25_15
*876 FILLER_0_25_161
*877 FILLER_0_25_167
*878 FILLER_0_25_169
*879 FILLER_0_25_181
*880 FILLER_0_25_193
*881 FILLER_0_25_205
*882 FILLER_0_25_217
*883 FILLER_0_25_223
*884 FILLER_0_25_225
*885 FILLER_0_25_237
*886 FILLER_0_25_262
*887 FILLER_0_25_27
*888 FILLER_0_25_274
*889 FILLER_0_25_3
*890 FILLER_0_25_301
*891 FILLER_0_25_313
*892 FILLER_0_25_325
*893 FILLER_0_25_333
*894 FILLER_0_25_337
*895 FILLER_0_25_349
*896 FILLER_0_25_39
*897 FILLER_0_25_51
*898 FILLER_0_25_55
*899 FILLER_0_25_57
*900 FILLER_0_25_69
*901 FILLER_0_25_81
*902 FILLER_0_25_93
*903 FILLER_0_26_109
*904 FILLER_0_26_121
*905 FILLER_0_26_133
*906 FILLER_0_26_139
*907 FILLER_0_26_141
*908 FILLER_0_26_15
*909 FILLER_0_26_153
*910 FILLER_0_26_165
*911 FILLER_0_26_177
*912 FILLER_0_26_189
*913 FILLER_0_26_195
*914 FILLER_0_26_197
*915 FILLER_0_26_209
*916 FILLER_0_26_221
*917 FILLER_0_26_259
*918 FILLER_0_26_267
*919 FILLER_0_26_27
*920 FILLER_0_26_275
*921 FILLER_0_26_29
*922 FILLER_0_26_3
*923 FILLER_0_26_302
*924 FILLER_0_26_309
*925 FILLER_0_26_321
*926 FILLER_0_26_333
*927 FILLER_0_26_345
*928 FILLER_0_26_41
*929 FILLER_0_26_53
*930 FILLER_0_26_65
*931 FILLER_0_26_77
*932 FILLER_0_26_83
*933 FILLER_0_26_85
*934 FILLER_0_26_97
*935 FILLER_0_27_105
*936 FILLER_0_27_111
*937 FILLER_0_27_113
*938 FILLER_0_27_125
*939 FILLER_0_27_137
*940 FILLER_0_27_149
*941 FILLER_0_27_15
*942 FILLER_0_27_157
*943 FILLER_0_27_166
*944 FILLER_0_27_169
*945 FILLER_0_27_181
*946 FILLER_0_27_193
*947 FILLER_0_27_201
*948 FILLER_0_27_232
*949 FILLER_0_27_242
*950 FILLER_0_27_253
*951 FILLER_0_27_259
*952 FILLER_0_27_27
*953 FILLER_0_27_281
*954 FILLER_0_27_289
*955 FILLER_0_27_296
*956 FILLER_0_27_3
*957 FILLER_0_27_308
*958 FILLER_0_27_320
*959 FILLER_0_27_332
*960 FILLER_0_27_337
*961 FILLER_0_27_349
*962 FILLER_0_27_39
*963 FILLER_0_27_51
*964 FILLER_0_27_55
*965 FILLER_0_27_57
*966 FILLER_0_27_69
*967 FILLER_0_27_81
*968 FILLER_0_27_93
*969 FILLER_0_28_109
*970 FILLER_0_28_121
*971 FILLER_0_28_133
*972 FILLER_0_28_139
*973 FILLER_0_28_141
*974 FILLER_0_28_15
*975 FILLER_0_28_159
*976 FILLER_0_28_169
*977 FILLER_0_28_183
*978 FILLER_0_28_195
*979 FILLER_0_28_227
*980 FILLER_0_28_235
*981 FILLER_0_28_247
*982 FILLER_0_28_251
*983 FILLER_0_28_253
*984 FILLER_0_28_265
*985 FILLER_0_28_27
*986 FILLER_0_28_277
*987 FILLER_0_28_289
*988 FILLER_0_28_29
*989 FILLER_0_28_3
*990 FILLER_0_28_301
*991 FILLER_0_28_307
*992 FILLER_0_28_309
*993 FILLER_0_28_321
*994 FILLER_0_28_334
*995 FILLER_0_28_346
*996 FILLER_0_28_350
*997 FILLER_0_28_41
*998 FILLER_0_28_53
*999 FILLER_0_28_65
*1000 FILLER_0_28_77
*1001 FILLER_0_28_83
*1002 FILLER_0_28_85
*1003 FILLER_0_28_97
*1004 FILLER_0_29_105
*1005 FILLER_0_29_111
*1006 FILLER_0_29_113
*1007 FILLER_0_29_125
*1008 FILLER_0_29_137
*1009 FILLER_0_29_145
*1010 FILLER_0_29_15
*1011 FILLER_0_29_162
*1012 FILLER_0_29_176
*1013 FILLER_0_29_188
*1014 FILLER_0_29_208
*1015 FILLER_0_29_220
*1016 FILLER_0_29_233
*1017 FILLER_0_29_245
*1018 FILLER_0_29_257
*1019 FILLER_0_29_269
*1020 FILLER_0_29_27
*1021 FILLER_0_29_277
*1022 FILLER_0_29_281
*1023 FILLER_0_29_295
*1024 FILLER_0_29_3
*1025 FILLER_0_29_334
*1026 FILLER_0_29_340
*1027 FILLER_0_29_348
*1028 FILLER_0_29_39
*1029 FILLER_0_29_51
*1030 FILLER_0_29_55
*1031 FILLER_0_29_57
*1032 FILLER_0_29_69
*1033 FILLER_0_29_81
*1034 FILLER_0_29_93
*1035 FILLER_0_2_109
*1036 FILLER_0_2_121
*1037 FILLER_0_2_133
*1038 FILLER_0_2_139
*1039 FILLER_0_2_141
*1040 FILLER_0_2_15
*1041 FILLER_0_2_153
*1042 FILLER_0_2_165
*1043 FILLER_0_2_177
*1044 FILLER_0_2_189
*1045 FILLER_0_2_195
*1046 FILLER_0_2_197
*1047 FILLER_0_2_209
*1048 FILLER_0_2_221
*1049 FILLER_0_2_233
*1050 FILLER_0_2_245
*1051 FILLER_0_2_251
*1052 FILLER_0_2_253
*1053 FILLER_0_2_265
*1054 FILLER_0_2_27
*1055 FILLER_0_2_277
*1056 FILLER_0_2_289
*1057 FILLER_0_2_29
*1058 FILLER_0_2_3
*1059 FILLER_0_2_301
*1060 FILLER_0_2_307
*1061 FILLER_0_2_309
*1062 FILLER_0_2_321
*1063 FILLER_0_2_333
*1064 FILLER_0_2_345
*1065 FILLER_0_2_41
*1066 FILLER_0_2_53
*1067 FILLER_0_2_65
*1068 FILLER_0_2_77
*1069 FILLER_0_2_83
*1070 FILLER_0_2_85
*1071 FILLER_0_2_97
*1072 FILLER_0_30_109
*1073 FILLER_0_30_121
*1074 FILLER_0_30_133
*1075 FILLER_0_30_139
*1076 FILLER_0_30_141
*1077 FILLER_0_30_147
*1078 FILLER_0_30_15
*1079 FILLER_0_30_171
*1080 FILLER_0_30_183
*1081 FILLER_0_30_187
*1082 FILLER_0_30_197
*1083 FILLER_0_30_210
*1084 FILLER_0_30_218
*1085 FILLER_0_30_246
*1086 FILLER_0_30_253
*1087 FILLER_0_30_27
*1088 FILLER_0_30_275
*1089 FILLER_0_30_287
*1090 FILLER_0_30_29
*1091 FILLER_0_30_299
*1092 FILLER_0_30_3
*1093 FILLER_0_30_307
*1094 FILLER_0_30_321
*1095 FILLER_0_30_344
*1096 FILLER_0_30_350
*1097 FILLER_0_30_41
*1098 FILLER_0_30_53
*1099 FILLER_0_30_65
*1100 FILLER_0_30_77
*1101 FILLER_0_30_83
*1102 FILLER_0_30_85
*1103 FILLER_0_30_97
*1104 FILLER_0_31_105
*1105 FILLER_0_31_111
*1106 FILLER_0_31_113
*1107 FILLER_0_31_125
*1108 FILLER_0_31_137
*1109 FILLER_0_31_145
*1110 FILLER_0_31_15
*1111 FILLER_0_31_163
*1112 FILLER_0_31_167
*1113 FILLER_0_31_169
*1114 FILLER_0_31_181
*1115 FILLER_0_31_187
*1116 FILLER_0_31_211
*1117 FILLER_0_31_223
*1118 FILLER_0_31_254
*1119 FILLER_0_31_262
*1120 FILLER_0_31_27
*1121 FILLER_0_31_278
*1122 FILLER_0_31_284
*1123 FILLER_0_31_3
*1124 FILLER_0_31_307
*1125 FILLER_0_31_340
*1126 FILLER_0_31_348
*1127 FILLER_0_31_39
*1128 FILLER_0_31_51
*1129 FILLER_0_31_55
*1130 FILLER_0_31_57
*1131 FILLER_0_31_69
*1132 FILLER_0_31_81
*1133 FILLER_0_31_93
*1134 FILLER_0_32_109
*1135 FILLER_0_32_121
*1136 FILLER_0_32_133
*1137 FILLER_0_32_139
*1138 FILLER_0_32_141
*1139 FILLER_0_32_147
*1140 FILLER_0_32_15
*1141 FILLER_0_32_164
*1142 FILLER_0_32_176
*1143 FILLER_0_32_188
*1144 FILLER_0_32_192
*1145 FILLER_0_32_218
*1146 FILLER_0_32_222
*1147 FILLER_0_32_249
*1148 FILLER_0_32_27
*1149 FILLER_0_32_29
*1150 FILLER_0_32_293
*1151 FILLER_0_32_3
*1152 FILLER_0_32_305
*1153 FILLER_0_32_309
*1154 FILLER_0_32_321
*1155 FILLER_0_32_347
*1156 FILLER_0_32_41
*1157 FILLER_0_32_53
*1158 FILLER_0_32_65
*1159 FILLER_0_32_77
*1160 FILLER_0_32_83
*1161 FILLER_0_32_85
*1162 FILLER_0_32_97
*1163 FILLER_0_33_105
*1164 FILLER_0_33_111
*1165 FILLER_0_33_113
*1166 FILLER_0_33_125
*1167 FILLER_0_33_137
*1168 FILLER_0_33_145
*1169 FILLER_0_33_15
*1170 FILLER_0_33_163
*1171 FILLER_0_33_167
*1172 FILLER_0_33_169
*1173 FILLER_0_33_181
*1174 FILLER_0_33_193
*1175 FILLER_0_33_202
*1176 FILLER_0_33_207
*1177 FILLER_0_33_219
*1178 FILLER_0_33_223
*1179 FILLER_0_33_225
*1180 FILLER_0_33_243
*1181 FILLER_0_33_255
*1182 FILLER_0_33_263
*1183 FILLER_0_33_27
*1184 FILLER_0_33_272
*1185 FILLER_0_33_279
*1186 FILLER_0_33_281
*1187 FILLER_0_33_292
*1188 FILLER_0_33_3
*1189 FILLER_0_33_304
*1190 FILLER_0_33_316
*1191 FILLER_0_33_320
*1192 FILLER_0_33_334
*1193 FILLER_0_33_337
*1194 FILLER_0_33_349
*1195 FILLER_0_33_39
*1196 FILLER_0_33_51
*1197 FILLER_0_33_55
*1198 FILLER_0_33_57
*1199 FILLER_0_33_69
*1200 FILLER_0_33_81
*1201 FILLER_0_33_93
*1202 FILLER_0_34_119
*1203 FILLER_0_34_131
*1204 FILLER_0_34_141
*1205 FILLER_0_34_15
*1206 FILLER_0_34_165
*1207 FILLER_0_34_177
*1208 FILLER_0_34_188
*1209 FILLER_0_34_203
*1210 FILLER_0_34_215
*1211 FILLER_0_34_227
*1212 FILLER_0_34_233
*1213 FILLER_0_34_245
*1214 FILLER_0_34_251
*1215 FILLER_0_34_253
*1216 FILLER_0_34_265
*1217 FILLER_0_34_269
*1218 FILLER_0_34_27
*1219 FILLER_0_34_29
*1220 FILLER_0_34_291
*1221 FILLER_0_34_3
*1222 FILLER_0_34_303
*1223 FILLER_0_34_307
*1224 FILLER_0_34_315
*1225 FILLER_0_34_327
*1226 FILLER_0_34_348
*1227 FILLER_0_34_41
*1228 FILLER_0_34_53
*1229 FILLER_0_34_65
*1230 FILLER_0_34_77
*1231 FILLER_0_34_83
*1232 FILLER_0_34_85
*1233 FILLER_0_34_97
*1234 FILLER_0_35_15
*1235 FILLER_0_35_167
*1236 FILLER_0_35_169
*1237 FILLER_0_35_222
*1238 FILLER_0_35_252
*1239 FILLER_0_35_265
*1240 FILLER_0_35_27
*1241 FILLER_0_35_279
*1242 FILLER_0_35_296
*1243 FILLER_0_35_3
*1244 FILLER_0_35_304
*1245 FILLER_0_35_325
*1246 FILLER_0_35_333
*1247 FILLER_0_35_344
*1248 FILLER_0_35_350
*1249 FILLER_0_35_39
*1250 FILLER_0_35_51
*1251 FILLER_0_35_55
*1252 FILLER_0_35_57
*1253 FILLER_0_35_69
*1254 FILLER_0_35_81
*1255 FILLER_0_35_93
*1256 FILLER_0_35_99
*1257 FILLER_0_36_121
*1258 FILLER_0_36_133
*1259 FILLER_0_36_141
*1260 FILLER_0_36_147
*1261 FILLER_0_36_15
*1262 FILLER_0_36_155
*1263 FILLER_0_36_166
*1264 FILLER_0_36_206
*1265 FILLER_0_36_214
*1266 FILLER_0_36_250
*1267 FILLER_0_36_256
*1268 FILLER_0_36_27
*1269 FILLER_0_36_29
*1270 FILLER_0_36_3
*1271 FILLER_0_36_304
*1272 FILLER_0_36_323
*1273 FILLER_0_36_327
*1274 FILLER_0_36_41
*1275 FILLER_0_36_53
*1276 FILLER_0_36_65
*1277 FILLER_0_36_77
*1278 FILLER_0_36_83
*1279 FILLER_0_36_85
*1280 FILLER_0_36_91
*1281 FILLER_0_37_101
*1282 FILLER_0_37_133
*1283 FILLER_0_37_15
*1284 FILLER_0_37_169
*1285 FILLER_0_37_173
*1286 FILLER_0_37_190
*1287 FILLER_0_37_212
*1288 FILLER_0_37_220
*1289 FILLER_0_37_225
*1290 FILLER_0_37_229
*1291 FILLER_0_37_256
*1292 FILLER_0_37_262
*1293 FILLER_0_37_27
*1294 FILLER_0_37_277
*1295 FILLER_0_37_298
*1296 FILLER_0_37_3
*1297 FILLER_0_37_319
*1298 FILLER_0_37_331
*1299 FILLER_0_37_335
*1300 FILLER_0_37_343
*1301 FILLER_0_37_39
*1302 FILLER_0_37_51
*1303 FILLER_0_37_55
*1304 FILLER_0_37_57
*1305 FILLER_0_37_69
*1306 FILLER_0_37_81
*1307 FILLER_0_37_93
*1308 FILLER_0_38_102
*1309 FILLER_0_38_106
*1310 FILLER_0_38_110
*1311 FILLER_0_38_113
*1312 FILLER_0_38_121
*1313 FILLER_0_38_126
*1314 FILLER_0_38_130
*1315 FILLER_0_38_134
*1316 FILLER_0_38_14
*1317 FILLER_0_38_141
*1318 FILLER_0_38_149
*1319 FILLER_0_38_153
*1320 FILLER_0_38_162
*1321 FILLER_0_38_169
*1322 FILLER_0_38_18
*1323 FILLER_0_38_185
*1324 FILLER_0_38_189
*1325 FILLER_0_38_195
*1326 FILLER_0_38_197
*1327 FILLER_0_38_203
*1328 FILLER_0_38_22
*1329 FILLER_0_38_241
*1330 FILLER_0_38_249
*1331 FILLER_0_38_253
*1332 FILLER_0_38_265
*1333 FILLER_0_38_278
*1334 FILLER_0_38_288
*1335 FILLER_0_38_3
*1336 FILLER_0_38_302
*1337 FILLER_0_38_312
*1338 FILLER_0_38_32
*1339 FILLER_0_38_324
*1340 FILLER_0_38_343
*1341 FILLER_0_38_38
*1342 FILLER_0_38_42
*1343 FILLER_0_38_46
*1344 FILLER_0_38_50
*1345 FILLER_0_38_54
*1346 FILLER_0_38_57
*1347 FILLER_0_38_62
*1348 FILLER_0_38_66
*1349 FILLER_0_38_70
*1350 FILLER_0_38_74
*1351 FILLER_0_38_78
*1352 FILLER_0_38_88
*1353 FILLER_0_38_94
*1354 FILLER_0_38_98
*1355 FILLER_0_3_105
*1356 FILLER_0_3_111
*1357 FILLER_0_3_113
*1358 FILLER_0_3_125
*1359 FILLER_0_3_137
*1360 FILLER_0_3_149
*1361 FILLER_0_3_15
*1362 FILLER_0_3_161
*1363 FILLER_0_3_167
*1364 FILLER_0_3_169
*1365 FILLER_0_3_181
*1366 FILLER_0_3_193
*1367 FILLER_0_3_205
*1368 FILLER_0_3_217
*1369 FILLER_0_3_223
*1370 FILLER_0_3_225
*1371 FILLER_0_3_237
*1372 FILLER_0_3_249
*1373 FILLER_0_3_261
*1374 FILLER_0_3_27
*1375 FILLER_0_3_273
*1376 FILLER_0_3_279
*1377 FILLER_0_3_281
*1378 FILLER_0_3_293
*1379 FILLER_0_3_3
*1380 FILLER_0_3_305
*1381 FILLER_0_3_317
*1382 FILLER_0_3_329
*1383 FILLER_0_3_335
*1384 FILLER_0_3_337
*1385 FILLER_0_3_349
*1386 FILLER_0_3_39
*1387 FILLER_0_3_51
*1388 FILLER_0_3_55
*1389 FILLER_0_3_57
*1390 FILLER_0_3_69
*1391 FILLER_0_3_81
*1392 FILLER_0_3_93
*1393 FILLER_0_4_109
*1394 FILLER_0_4_121
*1395 FILLER_0_4_133
*1396 FILLER_0_4_139
*1397 FILLER_0_4_141
*1398 FILLER_0_4_15
*1399 FILLER_0_4_153
*1400 FILLER_0_4_165
*1401 FILLER_0_4_177
*1402 FILLER_0_4_189
*1403 FILLER_0_4_195
*1404 FILLER_0_4_197
*1405 FILLER_0_4_209
*1406 FILLER_0_4_221
*1407 FILLER_0_4_233
*1408 FILLER_0_4_245
*1409 FILLER_0_4_251
*1410 FILLER_0_4_253
*1411 FILLER_0_4_265
*1412 FILLER_0_4_27
*1413 FILLER_0_4_277
*1414 FILLER_0_4_289
*1415 FILLER_0_4_29
*1416 FILLER_0_4_3
*1417 FILLER_0_4_301
*1418 FILLER_0_4_307
*1419 FILLER_0_4_309
*1420 FILLER_0_4_321
*1421 FILLER_0_4_333
*1422 FILLER_0_4_345
*1423 FILLER_0_4_41
*1424 FILLER_0_4_53
*1425 FILLER_0_4_65
*1426 FILLER_0_4_77
*1427 FILLER_0_4_83
*1428 FILLER_0_4_85
*1429 FILLER_0_4_97
*1430 FILLER_0_5_105
*1431 FILLER_0_5_111
*1432 FILLER_0_5_113
*1433 FILLER_0_5_125
*1434 FILLER_0_5_137
*1435 FILLER_0_5_149
*1436 FILLER_0_5_15
*1437 FILLER_0_5_161
*1438 FILLER_0_5_167
*1439 FILLER_0_5_169
*1440 FILLER_0_5_181
*1441 FILLER_0_5_193
*1442 FILLER_0_5_205
*1443 FILLER_0_5_217
*1444 FILLER_0_5_223
*1445 FILLER_0_5_225
*1446 FILLER_0_5_237
*1447 FILLER_0_5_249
*1448 FILLER_0_5_261
*1449 FILLER_0_5_27
*1450 FILLER_0_5_273
*1451 FILLER_0_5_279
*1452 FILLER_0_5_281
*1453 FILLER_0_5_293
*1454 FILLER_0_5_3
*1455 FILLER_0_5_305
*1456 FILLER_0_5_317
*1457 FILLER_0_5_329
*1458 FILLER_0_5_335
*1459 FILLER_0_5_337
*1460 FILLER_0_5_349
*1461 FILLER_0_5_39
*1462 FILLER_0_5_51
*1463 FILLER_0_5_55
*1464 FILLER_0_5_57
*1465 FILLER_0_5_69
*1466 FILLER_0_5_81
*1467 FILLER_0_5_93
*1468 FILLER_0_6_109
*1469 FILLER_0_6_121
*1470 FILLER_0_6_133
*1471 FILLER_0_6_139
*1472 FILLER_0_6_141
*1473 FILLER_0_6_15
*1474 FILLER_0_6_153
*1475 FILLER_0_6_165
*1476 FILLER_0_6_177
*1477 FILLER_0_6_189
*1478 FILLER_0_6_195
*1479 FILLER_0_6_197
*1480 FILLER_0_6_209
*1481 FILLER_0_6_221
*1482 FILLER_0_6_233
*1483 FILLER_0_6_245
*1484 FILLER_0_6_251
*1485 FILLER_0_6_253
*1486 FILLER_0_6_265
*1487 FILLER_0_6_27
*1488 FILLER_0_6_277
*1489 FILLER_0_6_289
*1490 FILLER_0_6_29
*1491 FILLER_0_6_3
*1492 FILLER_0_6_301
*1493 FILLER_0_6_307
*1494 FILLER_0_6_309
*1495 FILLER_0_6_321
*1496 FILLER_0_6_333
*1497 FILLER_0_6_345
*1498 FILLER_0_6_41
*1499 FILLER_0_6_53
*1500 FILLER_0_6_65
*1501 FILLER_0_6_77
*1502 FILLER_0_6_83
*1503 FILLER_0_6_85
*1504 FILLER_0_6_97
*1505 FILLER_0_7_105
*1506 FILLER_0_7_111
*1507 FILLER_0_7_113
*1508 FILLER_0_7_125
*1509 FILLER_0_7_137
*1510 FILLER_0_7_149
*1511 FILLER_0_7_15
*1512 FILLER_0_7_161
*1513 FILLER_0_7_167
*1514 FILLER_0_7_169
*1515 FILLER_0_7_181
*1516 FILLER_0_7_193
*1517 FILLER_0_7_205
*1518 FILLER_0_7_217