*SPEF "ieee 1481-1999"
*DESIGN "tt_um_zeptobars"
*DATE "11:11:11 Fri 11 11, 1111"
*VENDOR "OpenRCX"
*PROGRAM "Parallel Extraction"
*VERSION "1.0"
*DESIGN_FLOW "NAME_SCOPE LOCAL" "PIN_CAP NONE"
*DIVIDER /
*DELIMITER :
*BUS_DELIMITER []
*T_UNIT 1 NS
*C_UNIT 1 PF
*R_UNIT 1 OHM
*L_UNIT 1 HENRY

*NAME_MAP
*3 clk
*4 ena
*5 rst_n
*6 ui_in[0]
*7 ui_in[1]
*8 ui_in[2]
*9 ui_in[3]
*10 ui_in[4]
*11 ui_in[5]
*12 ui_in[6]
*13 ui_in[7]
*14 uio_in[0]
*15 uio_in[1]
*16 uio_in[2]
*17 uio_in[3]
*18 uio_in[4]
*19 uio_in[5]
*20 uio_in[6]
*21 uio_in[7]
*22 net12
*23 net13
*24 net14
*25 net15
*26 net16
*27 net17
*28 net18
*29 net19
*30 net20
*31 net21
*32 net22
*33 net23
*34 net24
*35 net25
*36 net26
*37 net27
*38 uo_out[0]
*39 uo_out[1]
*40 uo_out[2]
*41 uo_out[3]
*42 uo_out[4]
*43 uo_out[5]
*44 uo_out[6]
*45 uo_out[7]
*46 _000_
*47 _001_
*48 _002_
*49 _003_
*50 _004_
*51 _005_
*52 _006_
*53 _007_
*54 _008_
*55 _009_
*56 _010_
*57 _011_
*58 _012_
*59 _013_
*60 _014_
*61 _015_
*62 _016_
*63 _017_
*64 _018_
*65 _019_
*66 _020_
*67 _021_
*68 _022_
*69 _023_
*70 _024_
*71 _025_
*72 _026_
*73 _027_
*74 _028_
*75 _029_
*76 _030_
*77 _031_
*78 _032_
*79 _033_
*80 _034_
*81 _035_
*82 _036_
*83 _037_
*84 _038_
*85 _039_
*86 _040_
*87 _041_
*88 _042_
*89 _043_
*90 _044_
*91 _045_
*92 _046_
*93 _047_
*94 _048_
*95 _049_
*96 _050_
*97 _051_
*98 _052_
*99 _053_
*100 _054_
*101 _055_
*102 _056_
*103 _057_
*104 _058_
*105 _059_
*106 _060_
*107 _061_
*108 _062_
*109 _063_
*110 _064_
*111 _065_
*112 _066_
*113 _067_
*114 _068_
*115 _069_
*116 _070_
*117 _071_
*118 _072_
*119 _073_
*120 _074_
*121 _075_
*122 _076_
*123 _077_
*124 _078_
*125 _079_
*126 _080_
*127 _081_
*128 _082_
*129 _083_
*130 _084_
*131 _085_
*132 _086_
*133 _087_
*134 _088_
*135 _089_
*136 _090_
*137 _091_
*138 _092_
*139 _093_
*140 _094_
*141 _095_
*142 _096_
*143 _097_
*144 _098_
*145 _099_
*146 _100_
*147 _101_
*148 _102_
*149 _103_
*150 _104_
*151 _105_
*152 _106_
*153 _107_
*154 _108_
*155 _109_
*156 _110_
*157 _111_
*158 _112_
*159 _113_
*160 _114_
*161 _115_
*162 _116_
*163 _117_
*164 _118_
*165 _119_
*166 _120_
*167 _121_
*168 _122_
*169 _123_
*170 _124_
*171 _125_
*172 _126_
*173 _127_
*174 _128_
*175 _129_
*176 _130_
*177 _131_
*178 _132_
*179 _133_
*180 _134_
*181 _135_
*182 _136_
*183 _137_
*184 _138_
*185 _139_
*186 _140_
*187 _141_
*188 _142_
*189 _143_
*190 _144_
*191 _145_
*192 _146_
*193 _147_
*194 _148_
*195 _149_
*196 _150_
*197 _151_
*198 _152_
*199 _153_
*200 _154_
*201 _155_
*202 _156_
*203 _157_
*204 _158_
*205 _159_
*206 _160_
*207 _161_
*208 _162_
*209 _163_
*210 _164_
*211 _165_
*212 _166_
*213 _167_
*214 _168_
*215 _169_
*216 _170_
*217 _171_
*218 _172_
*219 _173_
*220 _174_
*221 _175_
*222 _176_
*223 _177_
*224 _178_
*225 _179_
*226 _180_
*227 _181_
*228 _182_
*229 _183_
*230 _184_
*231 _185_
*232 _186_
*233 _187_
*234 _188_
*235 _189_
*236 _190_
*237 _191_
*238 _192_
*239 _193_
*240 _194_
*241 _195_
*242 _196_
*243 _197_
*244 _198_
*245 _199_
*246 _200_
*247 _201_
*248 _202_
*249 _203_
*250 _204_
*251 _205_
*252 _206_
*253 _207_
*254 _208_
*255 _209_
*256 c1_1
*257 c2_1
*258 c4_1
*259 c5_1
*260 c6_1
*261 c7_1
*262 clknet_0_clk
*263 clknet_1_0__leaf_clk
*264 clknet_1_1__leaf_clk
*265 data\[0\]
*266 data\[10\]
*267 data\[11\]
*268 data\[12\]
*269 data\[13\]
*270 data\[14\]
*271 data\[15\]
*272 data\[16\]
*273 data\[17\]
*274 data\[18\]
*275 data\[19\]
*276 data\[1\]
*277 data\[20\]
*278 data\[21\]
*279 data\[22\]
*280 data\[23\]
*281 data\[24\]
*282 data\[25\]
*283 data\[26\]
*284 data\[27\]
*285 data\[2\]
*286 data\[3\]
*287 data\[4\]
*288 data\[5\]
*289 data\[6\]
*290 data\[7\]
*291 data\[8\]
*292 data\[9\]
*293 net1
*294 net10
*295 net11
*296 net2
*297 net28
*298 net29
*299 net3
*300 net4
*301 net5
*302 net6
*303 net7
*304 net8
*305 net9
*306 random_out
*307 selected_clock
*308 shifter\[0\]
*309 shifter\[10\]
*310 shifter\[11\]
*311 shifter\[1\]
*312 shifter\[2\]
*313 shifter\[3\]
*314 shifter\[4\]
*315 shifter\[5\]
*316 shifter\[6\]
*317 shifter\[7\]
*318 shifter\[8\]
*319 shifter\[9\]
*320 tmp0\.data\[0\]
*321 tmp0\.data\[1\]
*322 tmp1\.data\[0\]
*323 tmp1\.data\[1\]
*324 tmp2\.data\[0\]
*325 tmp2\.data\[1\]
*326 tmp3\.clk
*327 tmp3\.data\[0\]
*328 tmp3\.data\[1\]
*329 tmp4\.clk
*330 tmp4\.data\[0\]
*331 tmp4\.data\[1\]
*332 tmp5\.data\[0\]
*333 tmp5\.data\[1\]
*334 tmp6\.data\[0\]
*335 tmp6\.data\[1\]
*336 tmp7\.data\[0\]
*337 tmp7\.data\[1\]
*338 FILLER_0_0_109
*339 FILLER_0_0_113
*340 FILLER_0_0_125
*341 FILLER_0_0_137
*342 FILLER_0_0_141
*343 FILLER_0_0_15
*344 FILLER_0_0_153
*345 FILLER_0_0_165
*346 FILLER_0_0_169
*347 FILLER_0_0_181
*348 FILLER_0_0_193
*349 FILLER_0_0_197
*350 FILLER_0_0_209
*351 FILLER_0_0_221
*352 FILLER_0_0_225
*353 FILLER_0_0_237
*354 FILLER_0_0_249
*355 FILLER_0_0_253
*356 FILLER_0_0_265
*357 FILLER_0_0_27
*358 FILLER_0_0_277
*359 FILLER_0_0_281
*360 FILLER_0_0_29
*361 FILLER_0_0_293
*362 FILLER_0_0_3
*363 FILLER_0_0_305
*364 FILLER_0_0_309
*365 FILLER_0_0_321
*366 FILLER_0_0_333
*367 FILLER_0_0_337
*368 FILLER_0_0_349
*369 FILLER_0_0_41
*370 FILLER_0_0_53
*371 FILLER_0_0_57
*372 FILLER_0_0_69
*373 FILLER_0_0_81
*374 FILLER_0_0_85
*375 FILLER_0_0_97
*376 FILLER_0_10_109
*377 FILLER_0_10_121
*378 FILLER_0_10_133
*379 FILLER_0_10_139
*380 FILLER_0_10_141
*381 FILLER_0_10_15
*382 FILLER_0_10_153
*383 FILLER_0_10_165
*384 FILLER_0_10_177
*385 FILLER_0_10_189
*386 FILLER_0_10_195
*387 FILLER_0_10_197
*388 FILLER_0_10_209
*389 FILLER_0_10_221
*390 FILLER_0_10_233
*391 FILLER_0_10_245
*392 FILLER_0_10_251
*393 FILLER_0_10_253
*394 FILLER_0_10_265
*395 FILLER_0_10_27
*396 FILLER_0_10_277
*397 FILLER_0_10_289
*398 FILLER_0_10_29
*399 FILLER_0_10_3
*400 FILLER_0_10_301
*401 FILLER_0_10_307
*402 FILLER_0_10_309
*403 FILLER_0_10_321
*404 FILLER_0_10_333
*405 FILLER_0_10_345
*406 FILLER_0_10_41
*407 FILLER_0_10_53
*408 FILLER_0_10_65
*409 FILLER_0_10_77
*410 FILLER_0_10_83
*411 FILLER_0_10_85
*412 FILLER_0_10_97
*413 FILLER_0_11_105
*414 FILLER_0_11_111
*415 FILLER_0_11_113
*416 FILLER_0_11_125
*417 FILLER_0_11_137
*418 FILLER_0_11_149
*419 FILLER_0_11_15
*420 FILLER_0_11_161
*421 FILLER_0_11_167
*422 FILLER_0_11_169
*423 FILLER_0_11_181
*424 FILLER_0_11_193
*425 FILLER_0_11_205
*426 FILLER_0_11_217
*427 FILLER_0_11_223
*428 FILLER_0_11_225
*429 FILLER_0_11_237
*430 FILLER_0_11_249
*431 FILLER_0_11_261
*432 FILLER_0_11_27
*433 FILLER_0_11_273
*434 FILLER_0_11_279
*435 FILLER_0_11_281
*436 FILLER_0_11_293
*437 FILLER_0_11_3
*438 FILLER_0_11_305
*439 FILLER_0_11_317
*440 FILLER_0_11_329
*441 FILLER_0_11_335
*442 FILLER_0_11_337
*443 FILLER_0_11_349
*444 FILLER_0_11_39
*445 FILLER_0_11_51
*446 FILLER_0_11_55
*447 FILLER_0_11_57
*448 FILLER_0_11_69
*449 FILLER_0_11_81
*450 FILLER_0_11_93
*451 FILLER_0_12_109
*452 FILLER_0_12_121
*453 FILLER_0_12_133
*454 FILLER_0_12_139
*455 FILLER_0_12_141
*456 FILLER_0_12_15
*457 FILLER_0_12_153
*458 FILLER_0_12_165
*459 FILLER_0_12_177
*460 FILLER_0_12_189
*461 FILLER_0_12_195
*462 FILLER_0_12_197
*463 FILLER_0_12_209
*464 FILLER_0_12_221
*465 FILLER_0_12_233
*466 FILLER_0_12_245
*467 FILLER_0_12_251
*468 FILLER_0_12_253
*469 FILLER_0_12_265
*470 FILLER_0_12_27
*471 FILLER_0_12_277
*472 FILLER_0_12_289
*473 FILLER_0_12_29
*474 FILLER_0_12_3
*475 FILLER_0_12_301
*476 FILLER_0_12_307
*477 FILLER_0_12_309
*478 FILLER_0_12_321
*479 FILLER_0_12_333
*480 FILLER_0_12_345
*481 FILLER_0_12_41
*482 FILLER_0_12_53
*483 FILLER_0_12_65
*484 FILLER_0_12_77
*485 FILLER_0_12_83
*486 FILLER_0_12_85
*487 FILLER_0_12_97
*488 FILLER_0_13_105
*489 FILLER_0_13_111
*490 FILLER_0_13_113
*491 FILLER_0_13_125
*492 FILLER_0_13_137
*493 FILLER_0_13_149
*494 FILLER_0_13_15
*495 FILLER_0_13_161
*496 FILLER_0_13_167
*497 FILLER_0_13_169
*498 FILLER_0_13_181
*499 FILLER_0_13_193
*500 FILLER_0_13_205
*501 FILLER_0_13_217
*502 FILLER_0_13_223
*503 FILLER_0_13_225
*504 FILLER_0_13_237
*505 FILLER_0_13_249
*506 FILLER_0_13_261
*507 FILLER_0_13_27
*508 FILLER_0_13_273
*509 FILLER_0_13_279
*510 FILLER_0_13_281
*511 FILLER_0_13_293
*512 FILLER_0_13_3
*513 FILLER_0_13_305
*514 FILLER_0_13_317
*515 FILLER_0_13_329
*516 FILLER_0_13_335
*517 FILLER_0_13_337
*518 FILLER_0_13_349
*519 FILLER_0_13_39
*520 FILLER_0_13_51
*521 FILLER_0_13_55
*522 FILLER_0_13_57
*523 FILLER_0_13_69
*524 FILLER_0_13_81
*525 FILLER_0_13_93
*526 FILLER_0_14_109
*527 FILLER_0_14_121
*528 FILLER_0_14_133
*529 FILLER_0_14_139
*530 FILLER_0_14_141
*531 FILLER_0_14_15
*532 FILLER_0_14_153
*533 FILLER_0_14_165
*534 FILLER_0_14_177
*535 FILLER_0_14_189
*536 FILLER_0_14_195
*537 FILLER_0_14_197
*538 FILLER_0_14_209
*539 FILLER_0_14_221
*540 FILLER_0_14_233
*541 FILLER_0_14_245
*542 FILLER_0_14_251
*543 FILLER_0_14_253
*544 FILLER_0_14_265
*545 FILLER_0_14_27
*546 FILLER_0_14_277
*547 FILLER_0_14_289
*548 FILLER_0_14_29
*549 FILLER_0_14_3
*550 FILLER_0_14_301
*551 FILLER_0_14_307
*552 FILLER_0_14_309
*553 FILLER_0_14_321
*554 FILLER_0_14_333
*555 FILLER_0_14_345
*556 FILLER_0_14_41
*557 FILLER_0_14_53
*558 FILLER_0_14_65
*559 FILLER_0_14_77
*560 FILLER_0_14_83
*561 FILLER_0_14_85
*562 FILLER_0_14_97
*563 FILLER_0_15_105
*564 FILLER_0_15_111
*565 FILLER_0_15_113
*566 FILLER_0_15_125
*567 FILLER_0_15_137
*568 FILLER_0_15_149
*569 FILLER_0_15_15
*570 FILLER_0_15_161
*571 FILLER_0_15_167
*572 FILLER_0_15_169
*573 FILLER_0_15_181
*574 FILLER_0_15_193
*575 FILLER_0_15_205
*576 FILLER_0_15_217
*577 FILLER_0_15_223
*578 FILLER_0_15_225
*579 FILLER_0_15_237
*580 FILLER_0_15_249
*581 FILLER_0_15_261
*582 FILLER_0_15_27
*583 FILLER_0_15_273
*584 FILLER_0_15_279
*585 FILLER_0_15_281
*586 FILLER_0_15_293
*587 FILLER_0_15_3
*588 FILLER_0_15_305
*589 FILLER_0_15_317
*590 FILLER_0_15_329
*591 FILLER_0_15_335
*592 FILLER_0_15_337
*593 FILLER_0_15_349
*594 FILLER_0_15_39
*595 FILLER_0_15_51
*596 FILLER_0_15_55
*597 FILLER_0_15_57
*598 FILLER_0_15_69
*599 FILLER_0_15_81
*600 FILLER_0_15_93
*601 FILLER_0_16_109
*602 FILLER_0_16_121
*603 FILLER_0_16_133
*604 FILLER_0_16_139
*605 FILLER_0_16_141
*606 FILLER_0_16_15
*607 FILLER_0_16_153
*608 FILLER_0_16_165
*609 FILLER_0_16_177
*610 FILLER_0_16_189
*611 FILLER_0_16_195
*612 FILLER_0_16_197
*613 FILLER_0_16_209
*614 FILLER_0_16_221
*615 FILLER_0_16_233
*616 FILLER_0_16_245
*617 FILLER_0_16_251
*618 FILLER_0_16_253
*619 FILLER_0_16_265
*620 FILLER_0_16_27
*621 FILLER_0_16_277
*622 FILLER_0_16_289
*623 FILLER_0_16_29
*624 FILLER_0_16_3
*625 FILLER_0_16_301
*626 FILLER_0_16_307
*627 FILLER_0_16_309
*628 FILLER_0_16_321
*629 FILLER_0_16_333
*630 FILLER_0_16_345
*631 FILLER_0_16_41
*632 FILLER_0_16_53
*633 FILLER_0_16_65
*634 FILLER_0_16_77
*635 FILLER_0_16_83
*636 FILLER_0_16_85
*637 FILLER_0_16_97
*638 FILLER_0_17_105
*639 FILLER_0_17_111
*640 FILLER_0_17_113
*641 FILLER_0_17_125
*642 FILLER_0_17_137
*643 FILLER_0_17_149
*644 FILLER_0_17_15
*645 FILLER_0_17_161
*646 FILLER_0_17_167
*647 FILLER_0_17_169
*648 FILLER_0_17_181
*649 FILLER_0_17_193
*650 FILLER_0_17_205
*651 FILLER_0_17_217
*652 FILLER_0_17_223
*653 FILLER_0_17_225
*654 FILLER_0_17_237
*655 FILLER_0_17_249
*656 FILLER_0_17_261
*657 FILLER_0_17_27
*658 FILLER_0_17_273
*659 FILLER_0_17_279
*660 FILLER_0_17_281
*661 FILLER_0_17_293
*662 FILLER_0_17_3
*663 FILLER_0_17_305
*664 FILLER_0_17_317
*665 FILLER_0_17_329
*666 FILLER_0_17_335
*667 FILLER_0_17_337
*668 FILLER_0_17_349
*669 FILLER_0_17_39
*670 FILLER_0_17_51
*671 FILLER_0_17_55
*672 FILLER_0_17_57
*673 FILLER_0_17_69
*674 FILLER_0_17_81
*675 FILLER_0_17_93
*676 FILLER_0_18_109
*677 FILLER_0_18_121
*678 FILLER_0_18_133
*679 FILLER_0_18_139
*680 FILLER_0_18_141
*681 FILLER_0_18_15
*682 FILLER_0_18_153
*683 FILLER_0_18_165
*684 FILLER_0_18_177
*685 FILLER_0_18_189
*686 FILLER_0_18_195
*687 FILLER_0_18_197
*688 FILLER_0_18_209
*689 FILLER_0_18_221
*690 FILLER_0_18_233
*691 FILLER_0_18_245
*692 FILLER_0_18_251
*693 FILLER_0_18_253
*694 FILLER_0_18_265
*695 FILLER_0_18_27
*696 FILLER_0_18_277
*697 FILLER_0_18_289
*698 FILLER_0_18_29
*699 FILLER_0_18_3
*700 FILLER_0_18_301
*701 FILLER_0_18_307
*702 FILLER_0_18_309
*703 FILLER_0_18_321
*704 FILLER_0_18_333
*705 FILLER_0_18_345
*706 FILLER_0_18_41
*707 FILLER_0_18_53
*708 FILLER_0_18_65
*709 FILLER_0_18_77
*710 FILLER_0_18_83
*711 FILLER_0_18_85
*712 FILLER_0_18_97
*713 FILLER_0_19_105
*714 FILLER_0_19_111
*715 FILLER_0_19_113
*716 FILLER_0_19_125
*717 FILLER_0_19_137
*718 FILLER_0_19_149
*719 FILLER_0_19_15
*720 FILLER_0_19_161
*721 FILLER_0_19_167
*722 FILLER_0_19_169
*723 FILLER_0_19_181
*724 FILLER_0_19_193
*725 FILLER_0_19_205
*726 FILLER_0_19_217
*727 FILLER_0_19_223
*728 FILLER_0_19_225
*729 FILLER_0_19_237
*730 FILLER_0_19_249
*731 FILLER_0_19_261
*732 FILLER_0_19_27
*733 FILLER_0_19_273
*734 FILLER_0_19_279
*735 FILLER_0_19_281
*736 FILLER_0_19_293
*737 FILLER_0_19_3
*738 FILLER_0_19_305
*739 FILLER_0_19_317
*740 FILLER_0_19_329
*741 FILLER_0_19_335
*742 FILLER_0_19_337
*743 FILLER_0_19_349
*744 FILLER_0_19_39
*745 FILLER_0_19_51
*746 FILLER_0_19_55
*747 FILLER_0_19_57
*748 FILLER_0_19_69
*749 FILLER_0_19_81
*750 FILLER_0_19_93
*751 FILLER_0_1_105
*752 FILLER_0_1_111
*753 FILLER_0_1_113
*754 FILLER_0_1_125
*755 FILLER_0_1_137
*756 FILLER_0_1_149
*757 FILLER_0_1_15
*758 FILLER_0_1_161
*759 FILLER_0_1_167
*760 FILLER_0_1_169
*761 FILLER_0_1_181
*762 FILLER_0_1_193
*763 FILLER_0_1_205
*764 FILLER_0_1_217
*765 FILLER_0_1_223
*766 FILLER_0_1_225
*767 FILLER_0_1_237
*768 FILLER_0_1_249
*769 FILLER_0_1_261
*770 FILLER_0_1_27
*771 FILLER_0_1_273
*772 FILLER_0_1_279
*773 FILLER_0_1_281
*774 FILLER_0_1_293
*775 FILLER_0_1_3
*776 FILLER_0_1_305
*777 FILLER_0_1_317
*778 FILLER_0_1_329
*779 FILLER_0_1_335
*780 FILLER_0_1_337
*781 FILLER_0_1_349
*782 FILLER_0_1_39
*783 FILLER_0_1_51
*784 FILLER_0_1_55
*785 FILLER_0_1_57
*786 FILLER_0_1_69
*787 FILLER_0_1_81
*788 FILLER_0_1_93
*789 FILLER_0_20_109
*790 FILLER_0_20_121
*791 FILLER_0_20_133
*792 FILLER_0_20_139
*793 FILLER_0_20_141
*794 FILLER_0_20_15
*795 FILLER_0_20_153
*796 FILLER_0_20_165
*797 FILLER_0_20_177
*798 FILLER_0_20_189
*799 FILLER_0_20_195
*800 FILLER_0_20_197
*801 FILLER_0_20_209
*802 FILLER_0_20_221
*803 FILLER_0_20_233
*804 FILLER_0_20_245
*805 FILLER_0_20_251
*806 FILLER_0_20_253
*807 FILLER_0_20_265
*808 FILLER_0_20_27
*809 FILLER_0_20_277
*810 FILLER_0_20_289
*811 FILLER_0_20_29
*812 FILLER_0_20_3
*813 FILLER_0_20_301
*814 FILLER_0_20_307
*815 FILLER_0_20_309
*816 FILLER_0_20_321
*817 FILLER_0_20_333
*818 FILLER_0_20_345
*819 FILLER_0_20_41
*820 FILLER_0_20_53
*821 FILLER_0_20_65
*822 FILLER_0_20_77
*823 FILLER_0_20_83
*824 FILLER_0_20_85
*825 FILLER_0_20_97
*826 FILLER_0_21_105
*827 FILLER_0_21_111
*828 FILLER_0_21_113
*829 FILLER_0_21_125
*830 FILLER_0_21_137
*831 FILLER_0_21_149
*832 FILLER_0_21_15
*833 FILLER_0_21_161
*834 FILLER_0_21_167
*835 FILLER_0_21_169
*836 FILLER_0_21_181
*837 FILLER_0_21_193
*838 FILLER_0_21_205
*839 FILLER_0_21_217
*840 FILLER_0_21_223
*841 FILLER_0_21_225
*842 FILLER_0_21_237
*843 FILLER_0_21_249
*844 FILLER_0_21_261
*845 FILLER_0_21_27
*846 FILLER_0_21_273
*847 FILLER_0_21_279
*848 FILLER_0_21_281
*849 FILLER_0_21_293
*850 FILLER_0_21_3
*851 FILLER_0_21_305
*852 FILLER_0_21_317
*853 FILLER_0_21_329
*854 FILLER_0_21_335
*855 FILLER_0_21_337
*856 FILLER_0_21_349
*857 FILLER_0_21_39
*858 FILLER_0_21_51
*859 FILLER_0_21_55
*860 FILLER_0_21_57
*861 FILLER_0_21_69
*862 FILLER_0_21_81
*863 FILLER_0_21_93
*864 FILLER_0_22_109
*865 FILLER_0_22_121
*866 FILLER_0_22_133
*867 FILLER_0_22_139
*868 FILLER_0_22_141
*869 FILLER_0_22_146
*870 FILLER_0_22_15
*871 FILLER_0_22_159
*872 FILLER_0_22_171
*873 FILLER_0_22_183
*874 FILLER_0_22_190
*875 FILLER_0_22_197
*876 FILLER_0_22_209
*877 FILLER_0_22_221
*878 FILLER_0_22_233
*879 FILLER_0_22_245
*880 FILLER_0_22_251
*881 FILLER_0_22_253
*882 FILLER_0_22_257
*883 FILLER_0_22_27
*884 FILLER_0_22_274
*885 FILLER_0_22_286
*886 FILLER_0_22_29
*887 FILLER_0_22_298
*888 FILLER_0_22_3
*889 FILLER_0_22_306
*890 FILLER_0_22_309
*891 FILLER_0_22_321
*892 FILLER_0_22_333
*893 FILLER_0_22_345
*894 FILLER_0_22_41
*895 FILLER_0_22_53
*896 FILLER_0_22_65
*897 FILLER_0_22_77
*898 FILLER_0_22_83
*899 FILLER_0_22_85
*900 FILLER_0_22_97
*901 FILLER_0_23_105
*902 FILLER_0_23_111
*903 FILLER_0_23_113
*904 FILLER_0_23_125
*905 FILLER_0_23_137
*906 FILLER_0_23_15
*907 FILLER_0_23_163
*908 FILLER_0_23_167
*909 FILLER_0_23_169
*910 FILLER_0_23_210
*911 FILLER_0_23_216
*912 FILLER_0_23_222
*913 FILLER_0_23_225
*914 FILLER_0_23_237
*915 FILLER_0_23_249
*916 FILLER_0_23_253
*917 FILLER_0_23_27
*918 FILLER_0_23_277
*919 FILLER_0_23_288
*920 FILLER_0_23_296
*921 FILLER_0_23_3
*922 FILLER_0_23_305
*923 FILLER_0_23_317
*924 FILLER_0_23_329
*925 FILLER_0_23_335
*926 FILLER_0_23_337
*927 FILLER_0_23_349
*928 FILLER_0_23_39
*929 FILLER_0_23_51
*930 FILLER_0_23_55
*931 FILLER_0_23_57
*932 FILLER_0_23_69
*933 FILLER_0_23_81
*934 FILLER_0_23_93
*935 FILLER_0_24_109
*936 FILLER_0_24_121
*937 FILLER_0_24_127
*938 FILLER_0_24_141
*939 FILLER_0_24_15
*940 FILLER_0_24_173
*941 FILLER_0_24_238
*942 FILLER_0_24_250
*943 FILLER_0_24_253
*944 FILLER_0_24_261
*945 FILLER_0_24_27
*946 FILLER_0_24_29
*947 FILLER_0_24_296
*948 FILLER_0_24_3
*949 FILLER_0_24_300
*950 FILLER_0_24_323
*951 FILLER_0_24_346
*952 FILLER_0_24_350
*953 FILLER_0_24_41
*954 FILLER_0_24_53
*955 FILLER_0_24_65
*956 FILLER_0_24_77
*957 FILLER_0_24_83
*958 FILLER_0_24_85
*959 FILLER_0_24_97
*960 FILLER_0_25_105
*961 FILLER_0_25_111
*962 FILLER_0_25_113
*963 FILLER_0_25_125
*964 FILLER_0_25_15
*965 FILLER_0_25_164
*966 FILLER_0_25_169
*967 FILLER_0_25_184
*968 FILLER_0_25_202
*969 FILLER_0_25_214
*970 FILLER_0_25_222
*971 FILLER_0_25_257
*972 FILLER_0_25_269
*973 FILLER_0_25_27
*974 FILLER_0_25_277
*975 FILLER_0_25_294
*976 FILLER_0_25_3
*977 FILLER_0_25_306
*978 FILLER_0_25_318
*979 FILLER_0_25_326
*980 FILLER_0_25_335
*981 FILLER_0_25_346
*982 FILLER_0_25_350
*983 FILLER_0_25_39
*984 FILLER_0_25_51
*985 FILLER_0_25_55
*986 FILLER_0_25_57
*987 FILLER_0_25_69
*988 FILLER_0_25_81
*989 FILLER_0_25_93
*990 FILLER_0_26_109
*991 FILLER_0_26_121
*992 FILLER_0_26_133
*993 FILLER_0_26_139
*994 FILLER_0_26_141
*995 FILLER_0_26_15
*996 FILLER_0_26_160
*997 FILLER_0_26_172
*998 FILLER_0_26_184
*999 FILLER_0_26_191
*1000 FILLER_0_26_195
*1001 FILLER_0_26_197
*1002 FILLER_0_26_209
*1003 FILLER_0_26_217
*1004 FILLER_0_26_251
*1005 FILLER_0_26_253
*1006 FILLER_0_26_265
*1007 FILLER_0_26_27
*1008 FILLER_0_26_273
*1009 FILLER_0_26_281
*1010 FILLER_0_26_29
*1011 FILLER_0_26_293
*1012 FILLER_0_26_3
*1013 FILLER_0_26_305
*1014 FILLER_0_26_309
*1015 FILLER_0_26_321
*1016 FILLER_0_26_325
*1017 FILLER_0_26_346
*1018 FILLER_0_26_350
*1019 FILLER_0_26_41
*1020 FILLER_0_26_53
*1021 FILLER_0_26_65
*1022 FILLER_0_26_77
*1023 FILLER_0_26_83
*1024 FILLER_0_26_85
*1025 FILLER_0_26_97
*1026 FILLER_0_27_105
*1027 FILLER_0_27_111
*1028 FILLER_0_27_113
*1029 FILLER_0_27_125
*1030 FILLER_0_27_137
*1031 FILLER_0_27_149
*1032 FILLER_0_27_15
*1033 FILLER_0_27_166
*1034 FILLER_0_27_174
*1035 FILLER_0_27_205
*1036 FILLER_0_27_217
*1037 FILLER_0_27_223
*1038 FILLER_0_27_225
*1039 FILLER_0_27_247
*1040 FILLER_0_27_27
*1041 FILLER_0_27_275
*1042 FILLER_0_27_279
*1043 FILLER_0_27_281
*1044 FILLER_0_27_3
*1045 FILLER_0_27_306
*1046 FILLER_0_27_332
*1047 FILLER_0_27_337
*1048 FILLER_0_27_349
*1049 FILLER_0_27_39
*1050 FILLER_0_27_51
*1051 FILLER_0_27_55
*1052 FILLER_0_27_57
*1053 FILLER_0_27_69
*1054 FILLER_0_27_81
*1055 FILLER_0_27_93
*1056 FILLER_0_28_123
*1057 FILLER_0_28_129
*1058 FILLER_0_28_137
*1059 FILLER_0_28_141
*1060 FILLER_0_28_147
*1061 FILLER_0_28_15
*1062 FILLER_0_28_178
*1063 FILLER_0_28_195
*1064 FILLER_0_28_200
*1065 FILLER_0_28_212
*1066 FILLER_0_28_220
*1067 FILLER_0_28_232
*1068 FILLER_0_28_248
*1069 FILLER_0_28_253
*1070 FILLER_0_28_27
*1071 FILLER_0_28_279
*1072 FILLER_0_28_29
*1073 FILLER_0_28_3
*1074 FILLER_0_28_312
*1075 FILLER_0_28_320
*1076 FILLER_0_28_339
*1077 FILLER_0_28_41
*1078 FILLER_0_28_53
*1079 FILLER_0_28_65
*1080 FILLER_0_28_77
*1081 FILLER_0_28_83
*1082 FILLER_0_28_85
*1083 FILLER_0_28_97
*1084 FILLER_0_29_138
*1085 FILLER_0_29_15
*1086 FILLER_0_29_167
*1087 FILLER_0_29_175
*1088 FILLER_0_29_202
*1089 FILLER_0_29_214
*1090 FILLER_0_29_219
*1091 FILLER_0_29_223
*1092 FILLER_0_29_225
*1093 FILLER_0_29_229
*1094 FILLER_0_29_241
*1095 FILLER_0_29_266
*1096 FILLER_0_29_27
*1097 FILLER_0_29_287
*1098 FILLER_0_29_296
*1099 FILLER_0_29_3
*1100 FILLER_0_29_308
*1101 FILLER_0_29_348
*1102 FILLER_0_29_39
*1103 FILLER_0_29_51
*1104 FILLER_0_29_55
*1105 FILLER_0_29_77
*1106 FILLER_0_29_89
*1107 FILLER_0_29_97
*1108 FILLER_0_2_109
*1109 FILLER_0_2_121
*1110 FILLER_0_2_133
*1111 FILLER_0_2_139
*1112 FILLER_0_2_141
*1113 FILLER_0_2_15
*1114 FILLER_0_2_153
*1115 FILLER_0_2_165
*1116 FILLER_0_2_177
*1117 FILLER_0_2_189
*1118 FILLER_0_2_195
*1119 FILLER_0_2_197
*1120 FILLER_0_2_209
*1121 FILLER_0_2_221
*1122 FILLER_0_2_233
*1123 FILLER_0_2_245
*1124 FILLER_0_2_251
*1125 FILLER_0_2_253
*1126 FILLER_0_2_265
*1127 FILLER_0_2_27
*1128 FILLER_0_2_277
*1129 FILLER_0_2_289
*1130 FILLER_0_2_29
*1131 FILLER_0_2_3
*1132 FILLER_0_2_301
*1133 FILLER_0_2_307
*1134 FILLER_0_2_309
*1135 FILLER_0_2_321
*1136 FILLER_0_2_333
*1137 FILLER_0_2_345
*1138 FILLER_0_2_41
*1139 FILLER_0_2_53
*1140 FILLER_0_2_65
*1141 FILLER_0_2_77
*1142 FILLER_0_2_83
*1143 FILLER_0_2_85
*1144 FILLER_0_2_97
*1145 FILLER_0_30_126
*1146 FILLER_0_30_137
*1147 FILLER_0_30_15
*1148 FILLER_0_30_168
*1149 FILLER_0_30_180
*1150 FILLER_0_30_184
*1151 FILLER_0_30_188
*1152 FILLER_0_30_197
*1153 FILLER_0_30_230
*1154 FILLER_0_30_238
*1155 FILLER_0_30_247
*1156 FILLER_0_30_27
*1157 FILLER_0_30_287
*1158 FILLER_0_30_29
*1159 FILLER_0_30_299
*1160 FILLER_0_30_3
*1161 FILLER_0_30_307
*1162 FILLER_0_30_309
*1163 FILLER_0_30_313
*1164 FILLER_0_30_320
*1165 FILLER_0_30_326
*1166 FILLER_0_30_337
*1167 FILLER_0_30_349
*1168 FILLER_0_30_41
*1169 FILLER_0_30_47
*1170 FILLER_0_30_85
*1171 FILLER_0_30_97
*1172 FILLER_0_31_111
*1173 FILLER_0_31_117
*1174 FILLER_0_31_129
*1175 FILLER_0_31_141
*1176 FILLER_0_31_149
*1177 FILLER_0_31_15
*1178 FILLER_0_31_154
*1179 FILLER_0_31_166
*1180 FILLER_0_31_169
*1181 FILLER_0_31_181
*1182 FILLER_0_31_189
*1183 FILLER_0_31_217
*1184 FILLER_0_31_223
*1185 FILLER_0_31_225
*1186 FILLER_0_31_229
*1187 FILLER_0_31_254
*1188 FILLER_0_31_266
*1189 FILLER_0_31_27
*1190 FILLER_0_31_278
*1191 FILLER_0_31_288
*1192 FILLER_0_31_3
*1193 FILLER_0_31_300
*1194 FILLER_0_31_332
*1195 FILLER_0_31_337
*1196 FILLER_0_31_349
*1197 FILLER_0_31_39
*1198 FILLER_0_31_51
*1199 FILLER_0_31_57
*1200 FILLER_0_31_87
*1201 FILLER_0_31_99
*1202 FILLER_0_32_101
*1203 FILLER_0_32_125
*1204 FILLER_0_32_137
*1205 FILLER_0_32_141
*1206 FILLER_0_32_149
*1207 FILLER_0_32_15
*1208 FILLER_0_32_155
*1209 FILLER_0_32_184
*1210 FILLER_0_32_217
*1211 FILLER_0_32_231
*1212 FILLER_0_32_239
*1213 FILLER_0_32_247
*1214 FILLER_0_32_251
*1215 FILLER_0_32_253
*1216 FILLER_0_32_265
*1217 FILLER_0_32_27
*1218 FILLER_0_32_29
*1219 FILLER_0_32_294
*1220 FILLER_0_32_3
*1221 FILLER_0_32_302
*1222 FILLER_0_32_345
*1223 FILLER_0_32_41
*1224 FILLER_0_32_53
*1225 FILLER_0_32_61
*1226 FILLER_0_32_71
*1227 FILLER_0_32_80
*1228 FILLER_0_32_85
*1229 FILLER_0_32_97
*1230 FILLER_0_33_133
*1231 FILLER_0_33_139
*1232 FILLER_0_33_15
*1233 FILLER_0_33_167
*1234 FILLER_0_33_172
*1235 FILLER_0_33_184
*1236 FILLER_0_33_196
*1237 FILLER_0_33_221
*1238 FILLER_0_33_225
*1239 FILLER_0_33_237
*1240 FILLER_0_33_247
*1241 FILLER_0_33_259
*1242 FILLER_0_33_27
*1243 FILLER_0_33_271
*1244 FILLER_0_33_279
*1245 FILLER_0_33_281
*1246 FILLER_0_33_293
*1247 FILLER_0_33_3
*1248 FILLER_0_33_305
*1249 FILLER_0_33_317
*1250 FILLER_0_33_334
*1251 FILLER_0_33_343
*1252 FILLER_0_33_39
*1253 FILLER_0_33_51
*1254 FILLER_0_33_55
*1255 FILLER_0_33_81
*1256 FILLER_0_33_93
*1257 FILLER_0_34_123
*1258 FILLER_0_34_135
*1259 FILLER_0_34_139
*1260 FILLER_0_34_141
*1261 FILLER_0_34_15
*1262 FILLER_0_34_154
*1263 FILLER_0_34_169
*1264 FILLER_0_34_173
*1265 FILLER_0_34_178
*1266 FILLER_0_34_189
*1267 FILLER_0_34_195
*1268 FILLER_0_34_197
*1269 FILLER_0_34_213
*1270 FILLER_0_34_225
*1271 FILLER_0_34_241
*1272 FILLER_0_34_249
*1273 FILLER_0_34_253
*1274 FILLER_0_34_265
*1275 FILLER_0_34_27
*1276 FILLER_0_34_275
*1277 FILLER_0_34_281
*1278 FILLER_0_34_289
*1279 FILLER_0_34_29
*1280 FILLER_0_34_3
*1281 FILLER_0_34_301
*1282 FILLER_0_34_307
*1283 FILLER_0_34_309
*1284 FILLER_0_34_321
*1285 FILLER_0_34_350
*1286 FILLER_0_34_41
*1287 FILLER_0_34_53
*1288 FILLER_0_34_83
*1289 FILLER_0_34_85
*1290 FILLER_0_34_93
*1291 FILLER_0_35_110
*1292 FILLER_0_35_119
*1293 FILLER_0_35_147
*1294 FILLER_0_35_15
*1295 FILLER_0_35_155
*1296 FILLER_0_35_194
*1297 FILLER_0_35_215
*1298 FILLER_0_35_225
*1299 FILLER_0_35_233
*1300 FILLER_0_35_249
*1301 FILLER_0_35_266
*1302 FILLER_0_35_27
*1303 FILLER_0_35_281
*1304 FILLER_0_35_298
*1305 FILLER_0_35_3
*1306 FILLER_0_35_310
*1307 FILLER_0_35_322
*1308 FILLER_0_35_334
*1309 FILLER_0_35_337
*1310 FILLER_0_35_349
*1311 FILLER_0_35_39
*1312 FILLER_0_35_51
*1313 FILLER_0_35_55
*1314 FILLER_0_35_64
*1315 FILLER_0_35_76
*1316 FILLER_0_35_88
*1317 FILLER_0_35_96
*1318 FILLER_0_36_104
*1319 FILLER_0_36_116
*1320 FILLER_0_36_128
*1321 FILLER_0_36_139
*1322 FILLER_0_36_146
*1323 FILLER_0_36_15
*1324 FILLER_0_36_154
*1325 FILLER_0_36_179
*1326 FILLER_0_36_191
*1327 FILLER_0_36_195
*1328 FILLER_0_36_250
*1329 FILLER_0_36_27
*1330 FILLER_0_36_29
*1331 FILLER_0_36_3
*1332 FILLER_0_36_306
*1333 FILLER_0_36_309
*1334 FILLER_0_36_317
*1335 FILLER_0_36_342
*1336 FILLER_0_36_350
*1337 FILLER_0_36_41
*1338 FILLER_0_36_53
*1339 FILLER_0_36_65
*1340 FILLER_0_36_77
*1341 FILLER_0_36_83
*1342 FILLER_0_36_85
*1343 FILLER_0_36_97
*1344 FILLER_0_37_111
*1345 FILLER_0_37_113
*1346 FILLER_0_37_120
*1347 FILLER_0_37_126
*1348 FILLER_0_37_131
*1349 FILLER_0_37_15
*1350 FILLER_0_37_157
*1351 FILLER_0_37_163
*1352 FILLER_0_37_189
*1353 FILLER_0_37_193
*1354 FILLER_0_37_214
*1355 FILLER_0_37_27
*1356 FILLER_0_37_293
*1357 FILLER_0_37_299
*1358 FILLER_0_37_3
*1359 FILLER_0_37_343
*1360 FILLER_0_37_39
*1361 FILLER_0_37_51
*1362 FILLER_0_37_55
*1363 FILLER_0_37_57
*1364 FILLER_0_37_69
*1365 FILLER_0_37_81
*1366 FILLER_0_38_102
*1367 FILLER_0_38_106
*1368 FILLER_0_38_110
*1369 FILLER_0_38_113
*1370 FILLER_0_38_118
*1371 FILLER_0_38_122
*1372 FILLER_0_38_126
*1373 FILLER_0_38_14
*1374 FILLER_0_38_141
*1375 FILLER_0_38_153
*1376 FILLER_0_38_165
*1377 FILLER_0_38_169
*1378 FILLER_0_38_18
*1379 FILLER_0_38_181
*1380 FILLER_0_38_193
*1381 FILLER_0_38_197
*1382 FILLER_0_38_22
*1383 FILLER_0_38_233
*1384 FILLER_0_38_245
*1385 FILLER_0_38_251
*1386 FILLER_0_38_253
*1387 FILLER_0_38_265
*1388 FILLER_0_38_295
*1389 FILLER_0_38_3
*1390 FILLER_0_38_302
*1391 FILLER_0_38_312
*1392 FILLER_0_38_32
*1393 FILLER_0_38_320
*1394 FILLER_0_38_337
*1395 FILLER_0_38_345
*1396 FILLER_0_38_38
*1397 FILLER_0_38_42
*1398 FILLER_0_38_46
*1399 FILLER_0_38_50
*1400 FILLER_0_38_54
*1401 FILLER_0_38_57
*1402 FILLER_0_38_62
*1403 FILLER_0_38_66
*1404 FILLER_0_38_70
*1405 FILLER_0_38_74
*1406 FILLER_0_38_78
*1407 FILLER_0_38_88
*1408 FILLER_0_38_94
*1409 FILLER_0_38_98
*1410 FILLER_0_3_105
*1411 FILLER_0_3_111
*1412 FILLER_0_3_113
*1413 FILLER_0_3_125
*1414 FILLER_0_3_137
*1415 FILLER_0_3_149
*1416 FILLER_0_3_15
*1417 FILLER_0_3_161
*1418 FILLER_0_3_167
*1419 FILLER_0_3_169
*1420 FILLER_0_3_181
*1421 FILLER_0_3_193
*1422 FILLER_0_3_205
*1423 FILLER_0_3_217
*1424 FILLER_0_3_223
*1425 FILLER_0_3_225
*1426 FILLER_0_3_237
*1427 FILLER_0_3_249
*1428 FILLER_0_3_261
*1429 FILLER_0_3_27
*1430 FILLER_0_3_273
*1431 FILLER_0_3_279
*1432 FILLER_0_3_281
*1433 FILLER_0_3_293
*1434 FILLER_0_3_3
*1435 FILLER_0_3_305
*1436 FILLER_0_3_317
*1437 FILLER_0_3_329
*1438 FILLER_0_3_335
*1439 FILLER_0_3_337
*1440 FILLER_0_3_349
*1441 FILLER_0_3_39
*1442 FILLER_0_3_51
*1443 FILLER_0_3_55
*1444 FILLER_0_3_57
*1445 FILLER_0_3_69
*1446 FILLER_0_3_81
*1447 FILLER_0_3_93
*1448 FILLER_0_4_109
*1449 FILLER_0_4_121
*1450 FILLER_0_4_133
*1451 FILLER_0_4_139
*1452 FILLER_0_4_141
*1453 FILLER_0_4_15
*1454 FILLER_0_4_153
*1455 FILLER_0_4_165
*1456 FILLER_0_4_177
*1457 FILLER_0_4_189
*1458 FILLER_0_4_195
*1459 FILLER_0_4_197
*1460 FILLER_0_4_209
*1461 FILLER_0_4_221
*1462 FILLER_0_4_233
*1463 FILLER_0_4_245
*1464 FILLER_0_4_251
*1465 FILLER_0_4_253
*1466 FILLER_0_4_265
*1467 FILLER_0_4_27
*1468 FILLER_0_4_277
*1469 FILLER_0_4_289
*1470 FILLER_0_4_29
*1471 FILLER_0_4_3
*1472 FILLER_0_4_301
*1473 FILLER_0_4_307
*1474 FILLER_0_4_309
*1475 FILLER_0_4_321
*1476 FILLER_0_4_333
*1477 FILLER_0_4_345
*1478 FILLER_0_4_41
*1479 FILLER_0_4_53
*1480 FILLER_0_4_65
*1481 FILLER_0_4_77
*1482 FILLER_0_4_83
*1483 FILLER_0_4_85
*1484 FILLER_0_4_97
*1485 FILLER_0_5_105
*1486 FILLER_0_5_111
*1487 FILLER_0_5_113
*1488 FILLER_0_5_125
*1489 FILLER_0_5_137
*1490 FILLER_0_5_149
*1491 FILLER_0_5_15
*1492 FILLER_0_5_161
*1493 FILLER_0_5_167
*1494 FILLER_0_5_169
*1495 FILLER_0_5_181
*1496 FILLER_0_5_193
*1497 FILLER_0_5_205
*1498 FILLER_0_5_217
*1499 FILLER_0_5_223
*1500 FILLER_0_5_225
*1501 FILLER_0_5_237
*1502 FILLER_0_5_249
*1503 FILLER_0_5_261
*1504 FILLER_0_5_27
*1505 FILLER_0_5_273
*1506 FILLER_0_5_279
*1507 FILLER_0_5_281
*1508 FILLER_0_5_293
*1509 FILLER_0_5_3
*1510 FILLER_0_5_305
*1511 FILLER_0_5_317
*1512 FILLER_0_5_329
*1513 FILLER_0_5_335
*1514 FILLER_0_5_337
*1515 FILLER_0_5_349
*1516 FILLER_0_5_39
*1517 FILLER_0_5_51
*1518 FILLER_0_5_55
*1519 FILLER_0_5_57
*1520 FILLER_0_5_69
*1521 FILLER_0_5_81
*1522 FILLER_0_5_93
*1523 FILLER_0_6_109
*1524 FILLER_0_6_121
*1525 FILLER_0_6_133
*1526 FILLER_0_6_139
*1527 FILLER_0_6_141
*1528 FILLER_0_6_15
*1529 FILLER_0_6_153
*1530 FILLER_0_6_165
*1531 FILLER_0_6_177
*1532 FILLER_0_6_189
*1533 FILLER_0_6_195
*1534 FILLER_0_6_197
*1535 FILLER_0_6_209
*1536 FILLER_0_6_221
*1537 FILLER_0_6_233
*1538 FILLER_0_6_245
*1539 FILLER_0_6_251
*1540 FILLER_0_6_253
*1541 FILLER_0_6_265
*1542 FILLER_0_6_27
*1543 FILLER_0_6_277
*1544 FILLER_0_6_289
*1545 FILLER_0_6_29
*1546 FILLER_0_6_3
*1547 FILLER_0_6_301
*1548 FILLER_0_6_307
*1549 FILLER_0_6_309
*1550 FILLER_0_6_321
*1551 FILLER_0_6_333
*1552 FILLER_0_6_345
*1553 FILLER_0_6_41
*1554 FILLER_0_6_53
*1555 FILLER_0_6_65
*1556 FILLER_0_6_77
*1557 FILLER_0_6_83
*1558 FILLER_0_6_85
*1559 FILLER_0_6_97
*1560 FILLER_0_7_105
*1561 FILLER_0_7_111
*1562 FILLER_0_7_113