*SPEF "ieee 1481-1999"
*DESIGN "tt_um_wokwi_370011087462055937"
*DATE "11:11:11 Fri 11 11, 1111"
*VENDOR "OpenRCX"
*PROGRAM "Parallel Extraction"
*VERSION "1.0"
*DESIGN_FLOW "NAME_SCOPE LOCAL" "PIN_CAP NONE"
*DIVIDER /
*DELIMITER :
*BUS_DELIMITER []
*T_UNIT 1 NS
*C_UNIT 1 PF
*R_UNIT 1 OHM
*L_UNIT 1 HENRY

*NAME_MAP
*3 clk
*4 ena
*5 rst_n
*6 ui_in[0]
*7 ui_in[1]
*8 ui_in[2]
*9 ui_in[3]
*10 ui_in[4]
*11 ui_in[5]
*12 ui_in[6]
*13 ui_in[7]
*14 uio_in[0]
*15 uio_in[1]
*16 uio_in[2]
*17 uio_in[3]
*18 uio_in[4]
*19 uio_in[5]
*20 uio_in[6]
*21 uio_in[7]
*22 net14
*23 net15
*24 net16
*25 net17
*26 net18
*27 net19
*28 net20
*29 net21
*30 net22
*31 net23
*32 net24
*33 net25
*34 net26
*35 net27
*36 net28
*37 net29
*38 uo_out[0]
*39 uo_out[1]
*40 uo_out[2]
*41 uo_out[3]
*42 net30
*43 net31
*44 net32
*45 net33
*46 _000_
*47 _001_
*48 _002_
*49 _003_
*50 _004_
*51 _005_
*52 _006_
*53 _007_
*54 _008_
*55 _009_
*56 _010_
*57 _011_
*58 _012_
*59 _013_
*60 _014_
*61 _015_
*62 _016_
*63 _017_
*64 _018_
*65 _019_
*66 _020_
*67 _021_
*68 _022_
*69 _023_
*70 _024_
*71 _025_
*72 _026_
*73 _027_
*74 _028_
*75 _029_
*76 _030_
*77 _031_
*78 _032_
*79 _033_
*80 _034_
*81 _035_
*82 _036_
*83 _037_
*84 _038_
*85 _039_
*86 _040_
*87 _041_
*88 _042_
*89 _043_
*90 _044_
*91 _045_
*92 _046_
*93 _047_
*94 _048_
*95 _049_
*96 _050_
*97 _051_
*98 _052_
*99 _053_
*100 _054_
*101 _055_
*102 _056_
*103 _057_
*104 _058_
*105 _059_
*106 _060_
*107 _061_
*108 _062_
*109 _063_
*110 _064_
*111 _065_
*112 _066_
*113 _067_
*114 _068_
*115 _069_
*116 _070_
*117 _071_
*118 _072_
*119 _073_
*120 _074_
*121 _075_
*122 _076_
*123 _077_
*124 _078_
*125 _079_
*126 _080_
*127 _081_
*128 _082_
*129 _083_
*130 _084_
*131 _085_
*132 _086_
*133 _087_
*134 _088_
*135 _089_
*136 _090_
*137 _091_
*138 _092_
*139 _093_
*140 _094_
*141 _095_
*142 _096_
*143 _097_
*144 _098_
*145 _099_
*146 _100_
*147 _101_
*148 _102_
*149 _103_
*150 _104_
*151 _105_
*152 _106_
*153 _107_
*154 _108_
*155 _109_
*156 _110_
*157 _111_
*158 _112_
*159 _113_
*160 _114_
*161 _115_
*162 _116_
*163 _117_
*164 _118_
*165 _119_
*166 _120_
*167 _121_
*168 _122_
*169 _123_
*170 _124_
*171 _125_
*172 _126_
*173 _127_
*174 _128_
*175 _129_
*176 _130_
*177 _131_
*178 _132_
*179 _133_
*180 _134_
*181 _135_
*182 _136_
*183 _137_
*184 _138_
*185 _139_
*186 _140_
*187 _141_
*188 _142_
*189 _143_
*190 _144_
*191 _145_
*192 _146_
*193 _147_
*194 _148_
*195 _149_
*196 _150_
*197 _151_
*198 _152_
*199 _153_
*200 _154_
*201 _155_
*202 _156_
*203 _157_
*204 _158_
*205 _159_
*206 _160_
*207 _161_
*208 _162_
*209 _163_
*210 _164_
*211 _165_
*212 _166_
*213 _167_
*214 _168_
*215 _169_
*216 _170_
*217 _171_
*218 _172_
*219 _173_
*220 _174_
*221 _175_
*222 _176_
*223 _177_
*224 _178_
*225 _179_
*226 _180_
*227 _181_
*228 _182_
*229 _183_
*230 _184_
*231 _185_
*232 _186_
*233 _187_
*234 _188_
*235 _189_
*236 _190_
*237 _191_
*238 _192_
*239 _193_
*240 _194_
*241 _195_
*242 _196_
*243 _197_
*244 _198_
*245 _199_
*246 _200_
*247 _201_
*248 _202_
*249 _203_
*250 _204_
*251 _205_
*252 _206_
*253 _207_
*254 _208_
*255 _209_
*256 _210_
*257 _211_
*258 _212_
*259 _213_
*260 _214_
*261 _215_
*262 _216_
*263 _217_
*264 _218_
*265 _219_
*266 _220_
*267 _221_
*268 _222_
*269 _223_
*270 _224_
*271 _225_
*272 _226_
*273 _227_
*274 _228_
*275 _229_
*276 _230_
*277 _231_
*278 _232_
*279 _233_
*280 _234_
*281 _235_
*282 _236_
*283 _237_
*284 _238_
*285 _239_
*286 _240_
*287 _241_
*288 _242_
*289 _243_
*290 _244_
*291 _245_
*292 _246_
*293 _247_
*294 _248_
*295 _249_
*296 _250_
*297 _251_
*298 _252_
*299 _253_
*300 _254_
*301 _255_
*302 _256_
*303 _257_
*304 _258_
*305 and10\.a
*306 and12\.a
*307 and14\.a
*308 and16\.a
*309 and2\.a
*310 and34\.a
*311 and36\.a
*312 and38\.a
*313 and4\.a
*314 and40\.a
*315 and42\.a
*316 and44\.a
*317 and46\.a
*318 and48\.a
*319 and6\.a
*320 and8\.a
*321 clknet_0_clk
*322 clknet_3_0__leaf_clk
*323 clknet_3_1__leaf_clk
*324 clknet_3_2__leaf_clk
*325 clknet_3_3__leaf_clk
*326 clknet_3_4__leaf_clk
*327 clknet_3_5__leaf_clk
*328 clknet_3_6__leaf_clk
*329 clknet_3_7__leaf_clk
*330 flop13\.d
*331 flop13\.q
*332 flop14\.d
*333 flop14\.q
*334 flop15\.d
*335 flop15\.q
*336 flop16\.d
*337 flop16\.q
*338 flop17\.d
*339 flop17\.q
*340 flop18\.d
*341 flop18\.q
*342 flop19\.d
*343 flop19\.q
*344 flop20\.d
*345 flop20\.q
*346 flop21\.d
*347 flop21\.q
*348 flop22\.d
*349 flop22\.q
*350 flop23\.d
*351 flop23\.q
*352 flop24\.d
*353 flop24\.q
*354 flop25\.d
*355 flop25\.q
*356 flop26\.d
*357 flop26\.q
*358 flop27\.d
*359 flop27\.q
*360 flop28\.d
*361 flop28\.q
*362 flop29\.d
*363 flop29\.q
*364 flop30\.d
*365 flop30\.q
*366 flop31\.d
*367 flop31\.q
*368 flop32\.d
*369 flop32\.q
*370 flop33\.d
*371 flop33\.q
*372 flop34\.d
*373 flop34\.q
*374 flop35\.d
*375 flop35\.q
*376 flop36\.d
*377 flop36\.q
*378 flop37\.d
*379 flop37\.q
*380 flop38\.d
*381 flop38\.q
*382 flop39\.d
*383 flop39\.q
*384 flop40\.d
*385 flop40\.q
*386 flop41\.q
*387 flop42\.q
*388 flop43\.q
*389 flop44\.q
*390 flop45\.q
*391 flop46\.q
*392 flop47\.q
*393 flop48\.q
*394 flop49\.q
*395 flop5\.d
*396 flop5\.q
*397 flop50\.q
*398 flop51\.q
*399 flop52\.q
*400 flop53\.q
*401 flop54\.q
*402 flop55\.q
*403 flop56\.q
*404 flop6\.d
*405 flop6\.q
*406 flop7\.d
*407 flop7\.q
*408 flop8\.d
*409 flop8\.q
*410 net1
*411 net10
*412 net11
*413 net12
*414 net13
*415 net2
*416 net3
*417 net34
*418 net35
*419 net36
*420 net37
*421 net38
*422 net39
*423 net4
*424 net40
*425 net41
*426 net42
*427 net43
*428 net44
*429 net45
*430 net46
*431 net47
*432 net48
*433 net49
*434 net5
*435 net50
*436 net51
*437 net52
*438 net53
*439 net54
*440 net55
*441 net56
*442 net57
*443 net58
*444 net59
*445 net6
*446 net60
*447 net61
*448 net62
*449 net63
*450 net64
*451 net65
*452 net66
*453 net67
*454 net68
*455 net69
*456 net7
*457 net70
*458 net71
*459 net72
*460 net73
*461 net74
*462 net75
*463 net76
*464 net77
*465 net78
*466 net79
*467 net8
*468 net80
*469 net81
*470 net82
*471 net83
*472 net84
*473 net85
*474 net86
*475 net87
*476 net88
*477 net9
*478 FILLER_0_0_109
*479 FILLER_0_0_113
*480 FILLER_0_0_125
*481 FILLER_0_0_137
*482 FILLER_0_0_141
*483 FILLER_0_0_15
*484 FILLER_0_0_153
*485 FILLER_0_0_165
*486 FILLER_0_0_169
*487 FILLER_0_0_181
*488 FILLER_0_0_193
*489 FILLER_0_0_197
*490 FILLER_0_0_209
*491 FILLER_0_0_221
*492 FILLER_0_0_225
*493 FILLER_0_0_237
*494 FILLER_0_0_249
*495 FILLER_0_0_253
*496 FILLER_0_0_265
*497 FILLER_0_0_27
*498 FILLER_0_0_277
*499 FILLER_0_0_281
*500 FILLER_0_0_29
*501 FILLER_0_0_293
*502 FILLER_0_0_3
*503 FILLER_0_0_305
*504 FILLER_0_0_309
*505 FILLER_0_0_321
*506 FILLER_0_0_333
*507 FILLER_0_0_337
*508 FILLER_0_0_349
*509 FILLER_0_0_41
*510 FILLER_0_0_53
*511 FILLER_0_0_57
*512 FILLER_0_0_69
*513 FILLER_0_0_81
*514 FILLER_0_0_85
*515 FILLER_0_0_97
*516 FILLER_0_10_109
*517 FILLER_0_10_121
*518 FILLER_0_10_133
*519 FILLER_0_10_139
*520 FILLER_0_10_141
*521 FILLER_0_10_15
*522 FILLER_0_10_153
*523 FILLER_0_10_165
*524 FILLER_0_10_177
*525 FILLER_0_10_189
*526 FILLER_0_10_195
*527 FILLER_0_10_197
*528 FILLER_0_10_209
*529 FILLER_0_10_221
*530 FILLER_0_10_233
*531 FILLER_0_10_245
*532 FILLER_0_10_251
*533 FILLER_0_10_253
*534 FILLER_0_10_265
*535 FILLER_0_10_27
*536 FILLER_0_10_277
*537 FILLER_0_10_289
*538 FILLER_0_10_29
*539 FILLER_0_10_3
*540 FILLER_0_10_301
*541 FILLER_0_10_307
*542 FILLER_0_10_309
*543 FILLER_0_10_321
*544 FILLER_0_10_333
*545 FILLER_0_10_345
*546 FILLER_0_10_41
*547 FILLER_0_10_53
*548 FILLER_0_10_65
*549 FILLER_0_10_77
*550 FILLER_0_10_83
*551 FILLER_0_10_85
*552 FILLER_0_10_97
*553 FILLER_0_11_105
*554 FILLER_0_11_111
*555 FILLER_0_11_113
*556 FILLER_0_11_125
*557 FILLER_0_11_137
*558 FILLER_0_11_149
*559 FILLER_0_11_15
*560 FILLER_0_11_161
*561 FILLER_0_11_167
*562 FILLER_0_11_169
*563 FILLER_0_11_181
*564 FILLER_0_11_193
*565 FILLER_0_11_205
*566 FILLER_0_11_217
*567 FILLER_0_11_223
*568 FILLER_0_11_225
*569 FILLER_0_11_237
*570 FILLER_0_11_249
*571 FILLER_0_11_261
*572 FILLER_0_11_27
*573 FILLER_0_11_273
*574 FILLER_0_11_279
*575 FILLER_0_11_281
*576 FILLER_0_11_293
*577 FILLER_0_11_3
*578 FILLER_0_11_305
*579 FILLER_0_11_317
*580 FILLER_0_11_329
*581 FILLER_0_11_335
*582 FILLER_0_11_337
*583 FILLER_0_11_349
*584 FILLER_0_11_39
*585 FILLER_0_11_51
*586 FILLER_0_11_55
*587 FILLER_0_11_57
*588 FILLER_0_11_69
*589 FILLER_0_11_81
*590 FILLER_0_11_93
*591 FILLER_0_12_109
*592 FILLER_0_12_121
*593 FILLER_0_12_133
*594 FILLER_0_12_139
*595 FILLER_0_12_141
*596 FILLER_0_12_15
*597 FILLER_0_12_153
*598 FILLER_0_12_165
*599 FILLER_0_12_177
*600 FILLER_0_12_189
*601 FILLER_0_12_195
*602 FILLER_0_12_197
*603 FILLER_0_12_209
*604 FILLER_0_12_221
*605 FILLER_0_12_233
*606 FILLER_0_12_245
*607 FILLER_0_12_251
*608 FILLER_0_12_253
*609 FILLER_0_12_265
*610 FILLER_0_12_27
*611 FILLER_0_12_277
*612 FILLER_0_12_289
*613 FILLER_0_12_29
*614 FILLER_0_12_3
*615 FILLER_0_12_301
*616 FILLER_0_12_307
*617 FILLER_0_12_309
*618 FILLER_0_12_321
*619 FILLER_0_12_333
*620 FILLER_0_12_345
*621 FILLER_0_12_41
*622 FILLER_0_12_53
*623 FILLER_0_12_65
*624 FILLER_0_12_77
*625 FILLER_0_12_83
*626 FILLER_0_12_85
*627 FILLER_0_12_97
*628 FILLER_0_13_105
*629 FILLER_0_13_111
*630 FILLER_0_13_113
*631 FILLER_0_13_125
*632 FILLER_0_13_137
*633 FILLER_0_13_149
*634 FILLER_0_13_15
*635 FILLER_0_13_161
*636 FILLER_0_13_167
*637 FILLER_0_13_169
*638 FILLER_0_13_181
*639 FILLER_0_13_193
*640 FILLER_0_13_205
*641 FILLER_0_13_217
*642 FILLER_0_13_223
*643 FILLER_0_13_225
*644 FILLER_0_13_237
*645 FILLER_0_13_249
*646 FILLER_0_13_261
*647 FILLER_0_13_27
*648 FILLER_0_13_273
*649 FILLER_0_13_279
*650 FILLER_0_13_281
*651 FILLER_0_13_293
*652 FILLER_0_13_3
*653 FILLER_0_13_305
*654 FILLER_0_13_317
*655 FILLER_0_13_329
*656 FILLER_0_13_335
*657 FILLER_0_13_337
*658 FILLER_0_13_349
*659 FILLER_0_13_39
*660 FILLER_0_13_51
*661 FILLER_0_13_55
*662 FILLER_0_13_57
*663 FILLER_0_13_69
*664 FILLER_0_13_81
*665 FILLER_0_13_93
*666 FILLER_0_14_109
*667 FILLER_0_14_121
*668 FILLER_0_14_133
*669 FILLER_0_14_139
*670 FILLER_0_14_141
*671 FILLER_0_14_15
*672 FILLER_0_14_153
*673 FILLER_0_14_165
*674 FILLER_0_14_177
*675 FILLER_0_14_189
*676 FILLER_0_14_195
*677 FILLER_0_14_197
*678 FILLER_0_14_209
*679 FILLER_0_14_221
*680 FILLER_0_14_233
*681 FILLER_0_14_245
*682 FILLER_0_14_251
*683 FILLER_0_14_253
*684 FILLER_0_14_265
*685 FILLER_0_14_27
*686 FILLER_0_14_277
*687 FILLER_0_14_289
*688 FILLER_0_14_29
*689 FILLER_0_14_3
*690 FILLER_0_14_301
*691 FILLER_0_14_307
*692 FILLER_0_14_309
*693 FILLER_0_14_321
*694 FILLER_0_14_333
*695 FILLER_0_14_345
*696 FILLER_0_14_41
*697 FILLER_0_14_53
*698 FILLER_0_14_65
*699 FILLER_0_14_77
*700 FILLER_0_14_83
*701 FILLER_0_14_85
*702 FILLER_0_14_97
*703 FILLER_0_15_105
*704 FILLER_0_15_111
*705 FILLER_0_15_113
*706 FILLER_0_15_125
*707 FILLER_0_15_137
*708 FILLER_0_15_149
*709 FILLER_0_15_15
*710 FILLER_0_15_161
*711 FILLER_0_15_167
*712 FILLER_0_15_169
*713 FILLER_0_15_181
*714 FILLER_0_15_193
*715 FILLER_0_15_205
*716 FILLER_0_15_217
*717 FILLER_0_15_223
*718 FILLER_0_15_225
*719 FILLER_0_15_237
*720 FILLER_0_15_249
*721 FILLER_0_15_261
*722 FILLER_0_15_27
*723 FILLER_0_15_273
*724 FILLER_0_15_279
*725 FILLER_0_15_281
*726 FILLER_0_15_293
*727 FILLER_0_15_3
*728 FILLER_0_15_305
*729 FILLER_0_15_317
*730 FILLER_0_15_329
*731 FILLER_0_15_335
*732 FILLER_0_15_337
*733 FILLER_0_15_349
*734 FILLER_0_15_39
*735 FILLER_0_15_51
*736 FILLER_0_15_55
*737 FILLER_0_15_57
*738 FILLER_0_15_69
*739 FILLER_0_15_81
*740 FILLER_0_15_93
*741 FILLER_0_16_109
*742 FILLER_0_16_121
*743 FILLER_0_16_133
*744 FILLER_0_16_139
*745 FILLER_0_16_141
*746 FILLER_0_16_15
*747 FILLER_0_16_153
*748 FILLER_0_16_165
*749 FILLER_0_16_175
*750 FILLER_0_16_187
*751 FILLER_0_16_195
*752 FILLER_0_16_197
*753 FILLER_0_16_209
*754 FILLER_0_16_242
*755 FILLER_0_16_250
*756 FILLER_0_16_27
*757 FILLER_0_16_273
*758 FILLER_0_16_285
*759 FILLER_0_16_29
*760 FILLER_0_16_297
*761 FILLER_0_16_3
*762 FILLER_0_16_305
*763 FILLER_0_16_309
*764 FILLER_0_16_321
*765 FILLER_0_16_333
*766 FILLER_0_16_345
*767 FILLER_0_16_41
*768 FILLER_0_16_53
*769 FILLER_0_16_65
*770 FILLER_0_16_77
*771 FILLER_0_16_83
*772 FILLER_0_16_85
*773 FILLER_0_16_97
*774 FILLER_0_17_105
*775 FILLER_0_17_111
*776 FILLER_0_17_113
*777 FILLER_0_17_125
*778 FILLER_0_17_137
*779 FILLER_0_17_15
*780 FILLER_0_17_165
*781 FILLER_0_17_189
*782 FILLER_0_17_210
*783 FILLER_0_17_214
*784 FILLER_0_17_223
*785 FILLER_0_17_225
*786 FILLER_0_17_27
*787 FILLER_0_17_281
*788 FILLER_0_17_293
*789 FILLER_0_17_3
*790 FILLER_0_17_305
*791 FILLER_0_17_317
*792 FILLER_0_17_329
*793 FILLER_0_17_335
*794 FILLER_0_17_337
*795 FILLER_0_17_349
*796 FILLER_0_17_39
*797 FILLER_0_17_51
*798 FILLER_0_17_55
*799 FILLER_0_17_57
*800 FILLER_0_17_69
*801 FILLER_0_17_81
*802 FILLER_0_17_93
*803 FILLER_0_18_109
*804 FILLER_0_18_121
*805 FILLER_0_18_133
*806 FILLER_0_18_139
*807 FILLER_0_18_141
*808 FILLER_0_18_15
*809 FILLER_0_18_183
*810 FILLER_0_18_193
*811 FILLER_0_18_247
*812 FILLER_0_18_251
*813 FILLER_0_18_253
*814 FILLER_0_18_262
*815 FILLER_0_18_266
*816 FILLER_0_18_27
*817 FILLER_0_18_288
*818 FILLER_0_18_29
*819 FILLER_0_18_3
*820 FILLER_0_18_300
*821 FILLER_0_18_330
*822 FILLER_0_18_342
*823 FILLER_0_18_350
*824 FILLER_0_18_41
*825 FILLER_0_18_53
*826 FILLER_0_18_65
*827 FILLER_0_18_77
*828 FILLER_0_18_83
*829 FILLER_0_18_85
*830 FILLER_0_18_97
*831 FILLER_0_19_105
*832 FILLER_0_19_111
*833 FILLER_0_19_113
*834 FILLER_0_19_125
*835 FILLER_0_19_133
*836 FILLER_0_19_15
*837 FILLER_0_19_155
*838 FILLER_0_19_159
*839 FILLER_0_19_169
*840 FILLER_0_19_198
*841 FILLER_0_19_214
*842 FILLER_0_19_222
*843 FILLER_0_19_225
*844 FILLER_0_19_257
*845 FILLER_0_19_27
*846 FILLER_0_19_297
*847 FILLER_0_19_3
*848 FILLER_0_19_320
*849 FILLER_0_19_332
*850 FILLER_0_19_337
*851 FILLER_0_19_349
*852 FILLER_0_19_39
*853 FILLER_0_19_51
*854 FILLER_0_19_55
*855 FILLER_0_19_57
*856 FILLER_0_19_69
*857 FILLER_0_19_81
*858 FILLER_0_19_93
*859 FILLER_0_1_105
*860 FILLER_0_1_111
*861 FILLER_0_1_113
*862 FILLER_0_1_125
*863 FILLER_0_1_137
*864 FILLER_0_1_149
*865 FILLER_0_1_15
*866 FILLER_0_1_161
*867 FILLER_0_1_167
*868 FILLER_0_1_169
*869 FILLER_0_1_181
*870 FILLER_0_1_193
*871 FILLER_0_1_205
*872 FILLER_0_1_217
*873 FILLER_0_1_223
*874 FILLER_0_1_225
*875 FILLER_0_1_237
*876 FILLER_0_1_249
*877 FILLER_0_1_261
*878 FILLER_0_1_27
*879 FILLER_0_1_273
*880 FILLER_0_1_279
*881 FILLER_0_1_281
*882 FILLER_0_1_293
*883 FILLER_0_1_3
*884 FILLER_0_1_305
*885 FILLER_0_1_317
*886 FILLER_0_1_329
*887 FILLER_0_1_335
*888 FILLER_0_1_337
*889 FILLER_0_1_349
*890 FILLER_0_1_39
*891 FILLER_0_1_51
*892 FILLER_0_1_55
*893 FILLER_0_1_57
*894 FILLER_0_1_69
*895 FILLER_0_1_81
*896 FILLER_0_1_93
*897 FILLER_0_20_109
*898 FILLER_0_20_117
*899 FILLER_0_20_136
*900 FILLER_0_20_141
*901 FILLER_0_20_15
*902 FILLER_0_20_153
*903 FILLER_0_20_161
*904 FILLER_0_20_192
*905 FILLER_0_20_197
*906 FILLER_0_20_203
*907 FILLER_0_20_209
*908 FILLER_0_20_217
*909 FILLER_0_20_222
*910 FILLER_0_20_234
*911 FILLER_0_20_245
*912 FILLER_0_20_251
*913 FILLER_0_20_253
*914 FILLER_0_20_27
*915 FILLER_0_20_283
*916 FILLER_0_20_29
*917 FILLER_0_20_295
*918 FILLER_0_20_3
*919 FILLER_0_20_307
*920 FILLER_0_20_309
*921 FILLER_0_20_347
*922 FILLER_0_20_41
*923 FILLER_0_20_53
*924 FILLER_0_20_65
*925 FILLER_0_20_77
*926 FILLER_0_20_83
*927 FILLER_0_20_85
*928 FILLER_0_20_97
*929 FILLER_0_21_105
*930 FILLER_0_21_141
*931 FILLER_0_21_15
*932 FILLER_0_21_153
*933 FILLER_0_21_169
*934 FILLER_0_21_192
*935 FILLER_0_21_204
*936 FILLER_0_21_212
*937 FILLER_0_21_218
*938 FILLER_0_21_223
*939 FILLER_0_21_264
*940 FILLER_0_21_27
*941 FILLER_0_21_270
*942 FILLER_0_21_278
*943 FILLER_0_21_281
*944 FILLER_0_21_293
*945 FILLER_0_21_3
*946 FILLER_0_21_335
*947 FILLER_0_21_349
*948 FILLER_0_21_39
*949 FILLER_0_21_51
*950 FILLER_0_21_55
*951 FILLER_0_21_57
*952 FILLER_0_21_69
*953 FILLER_0_21_81
*954 FILLER_0_21_93
*955 FILLER_0_22_103
*956 FILLER_0_22_133
*957 FILLER_0_22_139
*958 FILLER_0_22_141
*959 FILLER_0_22_15
*960 FILLER_0_22_169
*961 FILLER_0_22_192
*962 FILLER_0_22_224
*963 FILLER_0_22_251
*964 FILLER_0_22_27
*965 FILLER_0_22_274
*966 FILLER_0_22_282
*967 FILLER_0_22_29
*968 FILLER_0_22_293
*969 FILLER_0_22_299
*970 FILLER_0_22_3
*971 FILLER_0_22_306
*972 FILLER_0_22_318
*973 FILLER_0_22_343
*974 FILLER_0_22_41
*975 FILLER_0_22_53
*976 FILLER_0_22_65
*977 FILLER_0_22_77
*978 FILLER_0_22_83
*979 FILLER_0_22_85
*980 FILLER_0_22_97
*981 FILLER_0_23_105
*982 FILLER_0_23_141
*983 FILLER_0_23_15
*984 FILLER_0_23_166
*985 FILLER_0_23_177
*986 FILLER_0_23_183
*987 FILLER_0_23_213
*988 FILLER_0_23_221
*989 FILLER_0_23_264
*990 FILLER_0_23_27
*991 FILLER_0_23_276
*992 FILLER_0_23_3
*993 FILLER_0_23_304
*994 FILLER_0_23_314
*995 FILLER_0_23_332
*996 FILLER_0_23_345
*997 FILLER_0_23_39
*998 FILLER_0_23_51
*999 FILLER_0_23_55
*1000 FILLER_0_23_57
*1001 FILLER_0_23_69
*1002 FILLER_0_23_81
*1003 FILLER_0_23_93
*1004 FILLER_0_24_105
*1005 FILLER_0_24_136
*1006 FILLER_0_24_141
*1007 FILLER_0_24_15
*1008 FILLER_0_24_156
*1009 FILLER_0_24_176
*1010 FILLER_0_24_182
*1011 FILLER_0_24_188
*1012 FILLER_0_24_197
*1013 FILLER_0_24_201
*1014 FILLER_0_24_207
*1015 FILLER_0_24_213
*1016 FILLER_0_24_223
*1017 FILLER_0_24_235
*1018 FILLER_0_24_247
*1019 FILLER_0_24_251
*1020 FILLER_0_24_253
*1021 FILLER_0_24_257
*1022 FILLER_0_24_27
*1023 FILLER_0_24_276
*1024 FILLER_0_24_280
*1025 FILLER_0_24_29
*1026 FILLER_0_24_3
*1027 FILLER_0_24_321
*1028 FILLER_0_24_344
*1029 FILLER_0_24_350
*1030 FILLER_0_24_41
*1031 FILLER_0_24_53
*1032 FILLER_0_24_65
*1033 FILLER_0_24_77
*1034 FILLER_0_24_83
*1035 FILLER_0_25_111
*1036 FILLER_0_25_113
*1037 FILLER_0_25_143
*1038 FILLER_0_25_147
*1039 FILLER_0_25_15
*1040 FILLER_0_25_166
*1041 FILLER_0_25_169
*1042 FILLER_0_25_181
*1043 FILLER_0_25_193
*1044 FILLER_0_25_205
*1045 FILLER_0_25_234
*1046 FILLER_0_25_242
*1047 FILLER_0_25_259
*1048 FILLER_0_25_27
*1049 FILLER_0_25_271
*1050 FILLER_0_25_279
*1051 FILLER_0_25_3
*1052 FILLER_0_25_308
*1053 FILLER_0_25_348
*1054 FILLER_0_25_39
*1055 FILLER_0_25_51
*1056 FILLER_0_25_55
*1057 FILLER_0_25_57
*1058 FILLER_0_25_69
*1059 FILLER_0_25_81
*1060 FILLER_0_26_122
*1061 FILLER_0_26_126
*1062 FILLER_0_26_138
*1063 FILLER_0_26_149
*1064 FILLER_0_26_15
*1065 FILLER_0_26_162
*1066 FILLER_0_26_178
*1067 FILLER_0_26_193
*1068 FILLER_0_26_206
*1069 FILLER_0_26_234
*1070 FILLER_0_26_240
*1071 FILLER_0_26_251
*1072 FILLER_0_26_265
*1073 FILLER_0_26_27
*1074 FILLER_0_26_277
*1075 FILLER_0_26_289
*1076 FILLER_0_26_29
*1077 FILLER_0_26_3
*1078 FILLER_0_26_338
*1079 FILLER_0_26_350
*1080 FILLER_0_26_41
*1081 FILLER_0_26_53
*1082 FILLER_0_26_65
*1083 FILLER_0_26_77
*1084 FILLER_0_26_85
*1085 FILLER_0_27_101
*1086 FILLER_0_27_148
*1087 FILLER_0_27_15
*1088 FILLER_0_27_156
*1089 FILLER_0_27_175
*1090 FILLER_0_27_186
*1091 FILLER_0_27_198
*1092 FILLER_0_27_225
*1093 FILLER_0_27_236
*1094 FILLER_0_27_264
*1095 FILLER_0_27_27
*1096 FILLER_0_27_276
*1097 FILLER_0_27_284
*1098 FILLER_0_27_3
*1099 FILLER_0_27_330
*1100 FILLER_0_27_345
*1101 FILLER_0_27_39
*1102 FILLER_0_27_51
*1103 FILLER_0_27_55
*1104 FILLER_0_27_57
*1105 FILLER_0_27_69
*1106 FILLER_0_27_77
*1107 FILLER_0_28_105
*1108 FILLER_0_28_139
*1109 FILLER_0_28_15
*1110 FILLER_0_28_155
*1111 FILLER_0_28_159
*1112 FILLER_0_28_173
*1113 FILLER_0_28_194
*1114 FILLER_0_28_197
*1115 FILLER_0_28_205
*1116 FILLER_0_28_227
*1117 FILLER_0_28_235
*1118 FILLER_0_28_251
*1119 FILLER_0_28_269
*1120 FILLER_0_28_27
*1121 FILLER_0_28_273
*1122 FILLER_0_28_29
*1123 FILLER_0_28_297
*1124 FILLER_0_28_3
*1125 FILLER_0_28_307
*1126 FILLER_0_28_309
*1127 FILLER_0_28_319
*1128 FILLER_0_28_41
*1129 FILLER_0_28_53
*1130 FILLER_0_28_65
*1131 FILLER_0_28_77
*1132 FILLER_0_28_83
*1133 FILLER_0_29_105
*1134 FILLER_0_29_111
*1135 FILLER_0_29_113
*1136 FILLER_0_29_145
*1137 FILLER_0_29_15
*1138 FILLER_0_29_157
*1139 FILLER_0_29_169
*1140 FILLER_0_29_184
*1141 FILLER_0_29_196
*1142 FILLER_0_29_208
*1143 FILLER_0_29_220
*1144 FILLER_0_29_225
*1145 FILLER_0_29_237
*1146 FILLER_0_29_27
*1147 FILLER_0_29_281
*1148 FILLER_0_29_293
*1149 FILLER_0_29_3
*1150 FILLER_0_29_300
*1151 FILLER_0_29_310
*1152 FILLER_0_29_334
*1153 FILLER_0_29_337
*1154 FILLER_0_29_350
*1155 FILLER_0_29_39
*1156 FILLER_0_29_51
*1157 FILLER_0_29_55
*1158 FILLER_0_29_57
*1159 FILLER_0_29_69
*1160 FILLER_0_29_81
*1161 FILLER_0_2_109
*1162 FILLER_0_2_121
*1163 FILLER_0_2_133
*1164 FILLER_0_2_139
*1165 FILLER_0_2_141
*1166 FILLER_0_2_15
*1167 FILLER_0_2_153
*1168 FILLER_0_2_165
*1169 FILLER_0_2_177
*1170 FILLER_0_2_189
*1171 FILLER_0_2_195
*1172 FILLER_0_2_197
*1173 FILLER_0_2_209
*1174 FILLER_0_2_221
*1175 FILLER_0_2_233
*1176 FILLER_0_2_245
*1177 FILLER_0_2_251
*1178 FILLER_0_2_253
*1179 FILLER_0_2_265
*1180 FILLER_0_2_27
*1181 FILLER_0_2_277
*1182 FILLER_0_2_289
*1183 FILLER_0_2_29
*1184 FILLER_0_2_3
*1185 FILLER_0_2_301
*1186 FILLER_0_2_307
*1187 FILLER_0_2_309
*1188 FILLER_0_2_321
*1189 FILLER_0_2_333
*1190 FILLER_0_2_345
*1191 FILLER_0_2_41
*1192 FILLER_0_2_53
*1193 FILLER_0_2_65
*1194 FILLER_0_2_77
*1195 FILLER_0_2_83
*1196 FILLER_0_2_85
*1197 FILLER_0_2_97
*1198 FILLER_0_30_105
*1199 FILLER_0_30_122
*1200 FILLER_0_30_128
*1201 FILLER_0_30_132
*1202 FILLER_0_30_139
*1203 FILLER_0_30_141
*1204 FILLER_0_30_145
*1205 FILLER_0_30_15
*1206 FILLER_0_30_159
*1207 FILLER_0_30_165
*1208 FILLER_0_30_173
*1209 FILLER_0_30_186
*1210 FILLER_0_30_194
*1211 FILLER_0_30_197
*1212 FILLER_0_30_201
*1213 FILLER_0_30_209
*1214 FILLER_0_30_223
*1215 FILLER_0_30_235
*1216 FILLER_0_30_269
*1217 FILLER_0_30_27
*1218 FILLER_0_30_29
*1219 FILLER_0_30_293
*1220 FILLER_0_30_3
*1221 FILLER_0_30_345
*1222 FILLER_0_30_41
*1223 FILLER_0_30_53
*1224 FILLER_0_30_65
*1225 FILLER_0_30_77
*1226 FILLER_0_31_105
*1227 FILLER_0_31_111
*1228 FILLER_0_31_121
*1229 FILLER_0_31_125
*1230 FILLER_0_31_146
*1231 FILLER_0_31_15
*1232 FILLER_0_31_150
*1233 FILLER_0_31_166
*1234 FILLER_0_31_181
*1235 FILLER_0_31_193
*1236 FILLER_0_31_222
*1237 FILLER_0_31_232
*1238 FILLER_0_31_244
*1239 FILLER_0_31_248
*1240 FILLER_0_31_265
*1241 FILLER_0_31_27
*1242 FILLER_0_31_281
*1243 FILLER_0_31_3
*1244 FILLER_0_31_303
*1245 FILLER_0_31_309
*1246 FILLER_0_31_345
*1247 FILLER_0_31_39
*1248 FILLER_0_31_51
*1249 FILLER_0_31_55
*1250 FILLER_0_31_57
*1251 FILLER_0_31_69
*1252 FILLER_0_31_81
*1253 FILLER_0_32_109
*1254 FILLER_0_32_115
*1255 FILLER_0_32_136
*1256 FILLER_0_32_15
*1257 FILLER_0_32_156
*1258 FILLER_0_32_189
*1259 FILLER_0_32_195
*1260 FILLER_0_32_197
*1261 FILLER_0_32_223
*1262 FILLER_0_32_231
*1263 FILLER_0_32_239
*1264 FILLER_0_32_244
*1265 FILLER_0_32_253
*1266 FILLER_0_32_261
*1267 FILLER_0_32_268
*1268 FILLER_0_32_27
*1269 FILLER_0_32_272
*1270 FILLER_0_32_29
*1271 FILLER_0_32_297
*1272 FILLER_0_32_3
*1273 FILLER_0_32_305
*1274 FILLER_0_32_309
*1275 FILLER_0_32_317
*1276 FILLER_0_32_348
*1277 FILLER_0_32_41
*1278 FILLER_0_32_53
*1279 FILLER_0_32_65
*1280 FILLER_0_32_77
*1281 FILLER_0_32_83
*1282 FILLER_0_32_85
*1283 FILLER_0_32_97
*1284 FILLER_0_33_105
*1285 FILLER_0_33_111
*1286 FILLER_0_33_133
*1287 FILLER_0_33_141
*1288 FILLER_0_33_15
*1289 FILLER_0_33_157
*1290 FILLER_0_33_166
*1291 FILLER_0_33_169
*1292 FILLER_0_33_188
*1293 FILLER_0_33_196
*1294 FILLER_0_33_208
*1295 FILLER_0_33_217
*1296 FILLER_0_33_223
*1297 FILLER_0_33_225
*1298 FILLER_0_33_233
*1299 FILLER_0_33_249
*1300 FILLER_0_33_257
*1301 FILLER_0_33_267
*1302 FILLER_0_33_27
*1303 FILLER_0_33_275
*1304 FILLER_0_33_279
*1305 FILLER_0_33_281
*1306 FILLER_0_33_288
*1307 FILLER_0_33_3
*1308 FILLER_0_33_300
*1309 FILLER_0_33_345
*1310 FILLER_0_33_39
*1311 FILLER_0_33_51
*1312 FILLER_0_33_55
*1313 FILLER_0_33_57
*1314 FILLER_0_33_69
*1315 FILLER_0_33_81
*1316 FILLER_0_33_93
*1317 FILLER_0_34_102
*1318 FILLER_0_34_114
*1319 FILLER_0_34_126
*1320 FILLER_0_34_136
*1321 FILLER_0_34_149
*1322 FILLER_0_34_15
*1323 FILLER_0_34_166
*1324 FILLER_0_34_176
*1325 FILLER_0_34_188
*1326 FILLER_0_34_201
*1327 FILLER_0_34_213
*1328 FILLER_0_34_217
*1329 FILLER_0_34_222
*1330 FILLER_0_34_233
*1331 FILLER_0_34_240
*1332 FILLER_0_34_249
*1333 FILLER_0_34_27
*1334 FILLER_0_34_29
*1335 FILLER_0_34_3
*1336 FILLER_0_34_309
*1337 FILLER_0_34_321
*1338 FILLER_0_34_344
*1339 FILLER_0_34_350
*1340 FILLER_0_34_41
*1341 FILLER_0_34_53
*1342 FILLER_0_34_65
*1343 FILLER_0_34_77
*1344 FILLER_0_34_83
*1345 FILLER_0_34_85
*1346 FILLER_0_34_97
*1347 FILLER_0_35_105
*1348 FILLER_0_35_133
*1349 FILLER_0_35_140
*1350 FILLER_0_35_15
*1351 FILLER_0_35_163
*1352 FILLER_0_35_167
*1353 FILLER_0_35_189
*1354 FILLER_0_35_198
*1355 FILLER_0_35_211
*1356 FILLER_0_35_215
*1357 FILLER_0_35_223
*1358 FILLER_0_35_256
*1359 FILLER_0_35_269
*1360 FILLER_0_35_27
*1361 FILLER_0_35_278
*1362 FILLER_0_35_296
*1363 FILLER_0_35_3
*1364 FILLER_0_35_308
*1365 FILLER_0_35_345
*1366 FILLER_0_35_39
*1367 FILLER_0_35_51
*1368 FILLER_0_35_55
*1369 FILLER_0_35_57
*1370 FILLER_0_35_69
*1371 FILLER_0_35_81
*1372 FILLER_0_35_93
*1373 FILLER_0_36_131
*1374 FILLER_0_36_139
*1375 FILLER_0_36_15
*1376 FILLER_0_36_156
*1377 FILLER_0_36_180
*1378 FILLER_0_36_217
*1379 FILLER_0_36_227
*1380 FILLER_0_36_244
*1381 FILLER_0_36_264
*1382 FILLER_0_36_27
*1383 FILLER_0_36_279
*1384 FILLER_0_36_29
*1385 FILLER_0_36_3
*1386 FILLER_0_36_302
*1387 FILLER_0_36_309
*1388 FILLER_0_36_340
*1389 FILLER_0_36_348
*1390 FILLER_0_36_41
*1391 FILLER_0_36_53
*1392 FILLER_0_36_65
*1393 FILLER_0_36_77
*1394 FILLER_0_36_83
*1395 FILLER_0_36_85
*1396 FILLER_0_37_105
*1397 FILLER_0_37_111
*1398 FILLER_0_37_113
*1399 FILLER_0_37_131
*1400 FILLER_0_37_140
*1401 FILLER_0_37_15
*1402 FILLER_0_37_167
*1403 FILLER_0_37_169
*1404 FILLER_0_37_175
*1405 FILLER_0_37_201
*1406 FILLER_0_37_245
*1407 FILLER_0_37_267
*1408 FILLER_0_37_27
*1409 FILLER_0_37_271
*1410 FILLER_0_37_3
*1411 FILLER_0_37_301
*1412 FILLER_0_37_305
*1413 FILLER_0_37_332
*1414 FILLER_0_37_349
*1415 FILLER_0_37_39
*1416 FILLER_0_37_51
*1417 FILLER_0_37_55
*1418 FILLER_0_37_57
*1419 FILLER_0_37_69
*1420 FILLER_0_37_81
*1421 FILLER_0_37_93
*1422 FILLER_0_38_102
*1423 FILLER_0_38_106
*1424 FILLER_0_38_110
*1425 FILLER_0_38_113
*1426 FILLER_0_38_118
*1427 FILLER_0_38_122
*1428 FILLER_0_38_126
*1429 FILLER_0_38_130
*1430 FILLER_0_38_134
*1431 FILLER_0_38_14
*1432 FILLER_0_38_144
*1433 FILLER_0_38_150
*1434 FILLER_0_38_161
*1435 FILLER_0_38_166
*1436 FILLER_0_38_169
*1437 FILLER_0_38_18
*1438 FILLER_0_38_181
*1439 FILLER_0_38_193
*1440 FILLER_0_38_197
*1441 FILLER_0_38_205
*1442 FILLER_0_38_212
*1443 FILLER_0_38_22
*1444 FILLER_0_38_233
*1445 FILLER_0_38_245
*1446 FILLER_0_38_251
*1447 FILLER_0_38_253
*1448 FILLER_0_38_265
*1449 FILLER_0_38_279
*1450 FILLER_0_38_281
*1451 FILLER_0_38_292
*1452 FILLER_0_38_298
*1453 FILLER_0_38_3
*1454 FILLER_0_38_302
*1455 FILLER_0_38_32
*1456 FILLER_0_38_345
*1457 FILLER_0_38_38
*1458 FILLER_0_38_42
*1459 FILLER_0_38_46
*1460 FILLER_0_38_50
*1461 FILLER_0_38_54
*1462 FILLER_0_38_57
*1463 FILLER_0_38_62
*1464 FILLER_0_38_66
*1465 FILLER_0_38_70
*1466 FILLER_0_38_74
*1467 FILLER_0_38_78
*1468 FILLER_0_38_88
*1469 FILLER_0_38_94
*1470 FILLER_0_38_98
*1471 FILLER_0_3_105
*1472 FILLER_0_3_111
*1473 FILLER_0_3_113
*1474 FILLER_0_3_125
*1475 FILLER_0_3_137
*1476 FILLER_0_3_149
*1477 FILLER_0_3_15
*1478 FILLER_0_3_161
*1479 FILLER_0_3_167
*1480 FILLER_0_3_169
*1481 FILLER_0_3_181
*1482 FILLER_0_3_193
*1483 FILLER_0_3_205
*1484 FILLER_0_3_217
*1485 FILLER_0_3_223
*1486 FILLER_0_3_225
*1487 FILLER_0_3_237
*1488 FILLER_0_3_249
*1489 FILLER_0_3_261
*1490 FILLER_0_3_27
*1491 FILLER_0_3_273
*1492 FILLER_0_3_279
*1493 FILLER_0_3_281
*1494 FILLER_0_3_293
*1495 FILLER_0_3_3
*1496 FILLER_0_3_305
*1497 FILLER_0_3_317
*1498 FILLER_0_3_329
*1499 FILLER_0_3_335
*1500 FILLER_0_3_337
*1501 FILLER_0_3_349
*1502 FILLER_0_3_39
*1503 FILLER_0_3_51
*1504 FILLER_0_3_55
*1505 FILLER_0_3_57
*1506 FILLER_0_3_69
*1507 FILLER_0_3_81
*1508 FILLER_0_3_93
*1509 FILLER_0_4_109
*1510 FILLER_0_4_121
*1511 FILLER_0_4_133
*1512 FILLER_0_4_139
*1513 FILLER_0_4_141
*1514 FILLER_0_4_15
*1515 FILLER_0_4_153
*1516 FILLER_0_4_165
*1517 FILLER_0_4_177
*1518 FILLER_0_4_189
*1519 FILLER_0_4_195
*1520 FILLER_0_4_197
*1521 FILLER_0_4_209
*1522 FILLER_0_4_221
*1523 FILLER_0_4_233
*1524 FILLER_0_4_245
*1525 FILLER_0_4_251
*1526 FILLER_0_4_253
*1527 FILLER_0_4_265
*1528 FILLER_0_4_27
*1529 FILLER_0_4_277
*1530 FILLER_0_4_289
*1531 FILLER_0_4_29
*1532 FILLER_0_4_3
*1533 FILLER_0_4_301
*1534 FILLER_0_4_307
*1535 FILLER_0_4_309
*1536 FILLER_0_4_321
*1537 FILLER_0_4_333
*1538 FILLER_0_4_345
*1539 FILLER_0_4_41
*1540 FILLER_0_4_53
*1541 FILLER_0_4_65
*1542 FILLER_0_4_77
*1543 FILLER_0_4_83
*1544 FILLER_0_4_85
*1545 FILLER_0_4_97
*1546 FILLER_0_5_105
*1547 FILLER_0_5_111
*1548 FILLER_0_5_113
*1549 FILLER_0_5_125
*1550 FILLER_0_5_137
*1551 FILLER_0_5_149
*1552 FILLER_0_5_15
*1553 FILLER_0_5_161
*1554 FILLER_0_5_167
*1555 FILLER_0_5_169
*1556 FILLER_0_5_181
*1557 FILLER_0_5_193
*1558 FILLER_0_5_205
*1559 FILLER_0_5_217
*1560 FILLER_0_5_223
*1561 FILLER_0_5_225
*1562 FILLER_0_5_237
*1563 FILLER_0_5_249
*1564 FILLER_0_5_261
*1565 FILLER_0_5_27
*1566 FILLER_0_5_273
*1567 FILLER_0_5_279
*1568 FILLER_0_5_281
*1569 FILLER_0_5_293
*1570 FILLER_0_5_3
*1571 FILLER_0_5_305
*1572 FILLER_0_5_317
*1573 FILLER_0_5_329
*1574 FILLER_0_5_335
*1575 FILLER_0_5_337
*1576 FILLER_0_5_349
*1577 FILLER_0_5_39
*1578 FILLER_0_5_51
*1579 FILLER_0_5_55
*1580 FILLER_0_5_57
*1581 FILLER_0_5_69
*1582 FILLER_0_5_81
*1583 FILLER_0_5_93
*1584 FILLER_0_6_109
*1585 FILLER_0_6_121
*1586 FILLER_0_6_133
*1587 FILLER_0_6_139
*1588 FILLER_0_6_141
*1589 FILLER_0_6_15
*1590 FILLER_0_6_153
*1591 FILLER_0_6_165
*1592 FILLER_0_6_177
*1593 FILLER_0_6_189
*1594 FILLER_0_6_195
*1595 FILLER_0_6_197
*1596 FILLER_0_6_209
*1597 FILLER_0_6_221
*1598 FILLER_0_6_233
*1599 FILLER_0_6_245
*1600 FILLER_0_6_251
*1601 FILLER_0_6_253
*1602 FILLER_0_6_265
*1603 FILLER_0_6_27
*1604 FILLER_0_6_277
*1605 FILLER_0_6_289
*1606 FILLER_0_6_29
*1607 FILLER_0_6_3
*1608 FILLER_0_6_301
*1609 FILLER_0_6_307
*1610 FILLER_0_6_309
*1611 FILLER_0_6_321
*1612 FILLER_0_6_333
*1613 FILLER_0_6_345
*1614 FILLER_0_6_41
*1615 FILLER_0_6_53
*1616 FILLER_0_6_65
*1617 FILLER_0_6_77
*1618 FILLER_0_6_83
*1619 FILLER_0_6_85
*1620 FILLER_0_6_97
*1621 FILLER_0_7_105
*1622 FILLER_0_7_111
*1623 FILLER_0_7_113