*SPEF "ieee 1481-1999"
*DESIGN "tt_um_seven_segment_seconds"
*DATE "11:11:11 Fri 11 11, 1111"
*VENDOR "OpenRCX"
*PROGRAM "Parallel Extraction"
*VERSION "1.0"
*DESIGN_FLOW "NAME_SCOPE LOCAL" "PIN_CAP NONE"
*DIVIDER /
*DELIMITER :
*BUS_DELIMITER []
*T_UNIT 1 NS
*C_UNIT 1 PF
*R_UNIT 1 OHM
*L_UNIT 1 HENRY

*NAME_MAP
*3 clk
*4 ena
*5 rst_n
*6 ui_in[0]
*7 ui_in[1]
*8 ui_in[2]
*9 ui_in[3]
*10 ui_in[4]
*11 ui_in[5]
*12 ui_in[6]
*13 ui_in[7]
*14 uio_in[0]
*15 uio_in[1]
*16 uio_in[2]
*17 uio_in[3]
*18 uio_in[4]
*19 uio_in[5]
*20 uio_in[6]
*21 uio_in[7]
*22 net11
*23 net12
*24 net13
*25 net14
*26 net15
*27 net16
*28 net17
*29 net18
*30 uio_out[0]
*31 uio_out[1]
*32 uio_out[2]
*33 uio_out[3]
*34 uio_out[4]
*35 uio_out[5]
*36 uio_out[6]
*37 uio_out[7]
*38 uo_out[0]
*39 uo_out[1]
*40 uo_out[2]
*41 uo_out[3]
*42 uo_out[4]
*43 uo_out[5]
*44 uo_out[6]
*45 net10
*46 _000_
*47 _001_
*48 _002_
*49 _003_
*50 _004_
*51 _005_
*52 _006_
*53 _007_
*54 _008_
*55 _009_
*56 _010_
*57 _011_
*58 _012_
*59 _013_
*60 _014_
*61 _015_
*62 _016_
*63 _017_
*64 _018_
*65 _019_
*66 _020_
*67 _021_
*68 _022_
*69 _023_
*70 _024_
*71 _025_
*72 _026_
*73 _027_
*74 _028_
*75 _029_
*76 _030_
*77 _031_
*78 _032_
*79 _033_
*80 _034_
*81 _035_
*82 _036_
*83 _037_
*84 _038_
*85 _039_
*86 _040_
*87 _041_
*88 _042_
*89 _043_
*90 _044_
*91 _045_
*92 _046_
*93 _047_
*94 _048_
*95 _049_
*96 _050_
*97 _051_
*98 _052_
*99 _053_
*100 _054_
*101 _055_
*102 _056_
*103 _057_
*104 _058_
*105 _059_
*106 _060_
*107 _061_
*108 _062_
*109 _063_
*110 _064_
*111 _065_
*112 _066_
*113 _067_
*114 _068_
*115 _069_
*116 _070_
*117 _071_
*118 _072_
*119 _073_
*120 _074_
*121 _075_
*122 _076_
*123 _077_
*124 _078_
*125 _079_
*126 _080_
*127 _081_
*128 _082_
*129 _083_
*130 _084_
*131 _085_
*132 _086_
*133 _087_
*134 _088_
*135 _089_
*136 _090_
*137 _091_
*138 _092_
*139 _093_
*140 _094_
*141 _095_
*142 _096_
*143 _097_
*144 _098_
*145 _099_
*146 _100_
*147 _101_
*148 _102_
*149 _103_
*150 _104_
*151 _105_
*152 _106_
*153 _107_
*154 _108_
*155 _109_
*156 _110_
*157 _111_
*158 _112_
*159 _113_
*160 _114_
*161 _115_
*162 _116_
*163 _117_
*164 _118_
*165 _119_
*166 _120_
*167 _121_
*168 _122_
*169 _123_
*170 _124_
*171 _125_
*172 _126_
*173 _127_
*174 _128_
*175 _129_
*176 _130_
*177 _131_
*178 _132_
*179 _133_
*180 _134_
*181 _135_
*182 _136_
*183 _137_
*184 _138_
*185 _139_
*186 _140_
*187 _141_
*188 _142_
*189 _143_
*190 _144_
*191 _145_
*192 _146_
*193 _147_
*194 _148_
*195 _149_
*196 _150_
*197 _151_
*198 _152_
*199 _153_
*200 _154_
*201 _155_
*202 _156_
*203 _157_
*204 _158_
*205 _159_
*206 clknet_0_clk
*207 clknet_2_0__leaf_clk
*208 clknet_2_1__leaf_clk
*209 clknet_2_2__leaf_clk
*210 clknet_2_3__leaf_clk
*211 net1
*212 net19
*213 net2
*214 net20
*215 net21
*216 net22
*217 net23
*218 net24
*219 net25
*220 net26
*221 net27
*222 net28
*223 net29
*224 net3
*225 net4
*226 net5
*227 net6
*228 net7
*229 net8
*230 net9
*231 second_counter\[0\]
*232 second_counter\[10\]
*233 second_counter\[11\]
*234 second_counter\[12\]
*235 second_counter\[13\]
*236 second_counter\[14\]
*237 second_counter\[15\]
*238 second_counter\[16\]
*239 second_counter\[17\]
*240 second_counter\[18\]
*241 second_counter\[19\]
*242 second_counter\[1\]
*243 second_counter\[20\]
*244 second_counter\[21\]
*245 second_counter\[22\]
*246 second_counter\[23\]
*247 second_counter\[2\]
*248 second_counter\[3\]
*249 second_counter\[4\]
*250 second_counter\[5\]
*251 second_counter\[6\]
*252 second_counter\[7\]
*253 second_counter\[8\]
*254 second_counter\[9\]
*255 seg7\.counter\[0\]
*256 seg7\.counter\[1\]
*257 seg7\.counter\[2\]
*258 seg7\.counter\[3\]
*259 FILLER_0_0_109
*260 FILLER_0_0_113
*261 FILLER_0_0_125
*262 FILLER_0_0_137
*263 FILLER_0_0_141
*264 FILLER_0_0_15
*265 FILLER_0_0_153
*266 FILLER_0_0_165
*267 FILLER_0_0_169
*268 FILLER_0_0_181
*269 FILLER_0_0_193
*270 FILLER_0_0_197
*271 FILLER_0_0_209
*272 FILLER_0_0_221
*273 FILLER_0_0_225
*274 FILLER_0_0_237
*275 FILLER_0_0_249
*276 FILLER_0_0_253
*277 FILLER_0_0_265
*278 FILLER_0_0_27
*279 FILLER_0_0_277
*280 FILLER_0_0_281
*281 FILLER_0_0_29
*282 FILLER_0_0_293
*283 FILLER_0_0_3
*284 FILLER_0_0_305
*285 FILLER_0_0_309
*286 FILLER_0_0_321
*287 FILLER_0_0_333
*288 FILLER_0_0_337
*289 FILLER_0_0_349
*290 FILLER_0_0_41
*291 FILLER_0_0_53
*292 FILLER_0_0_57
*293 FILLER_0_0_69
*294 FILLER_0_0_81
*295 FILLER_0_0_85
*296 FILLER_0_0_97
*297 FILLER_0_10_109
*298 FILLER_0_10_121
*299 FILLER_0_10_133
*300 FILLER_0_10_139
*301 FILLER_0_10_141
*302 FILLER_0_10_15
*303 FILLER_0_10_153
*304 FILLER_0_10_165
*305 FILLER_0_10_177
*306 FILLER_0_10_189
*307 FILLER_0_10_195
*308 FILLER_0_10_197
*309 FILLER_0_10_209
*310 FILLER_0_10_221
*311 FILLER_0_10_233
*312 FILLER_0_10_245
*313 FILLER_0_10_251
*314 FILLER_0_10_253
*315 FILLER_0_10_265
*316 FILLER_0_10_27
*317 FILLER_0_10_277
*318 FILLER_0_10_289
*319 FILLER_0_10_29
*320 FILLER_0_10_3
*321 FILLER_0_10_301
*322 FILLER_0_10_307
*323 FILLER_0_10_309
*324 FILLER_0_10_321
*325 FILLER_0_10_333
*326 FILLER_0_10_345
*327 FILLER_0_10_41
*328 FILLER_0_10_53
*329 FILLER_0_10_65
*330 FILLER_0_10_77
*331 FILLER_0_10_83
*332 FILLER_0_10_85
*333 FILLER_0_10_97
*334 FILLER_0_11_105
*335 FILLER_0_11_111
*336 FILLER_0_11_113
*337 FILLER_0_11_125
*338 FILLER_0_11_137
*339 FILLER_0_11_149
*340 FILLER_0_11_15
*341 FILLER_0_11_161
*342 FILLER_0_11_167
*343 FILLER_0_11_169
*344 FILLER_0_11_181
*345 FILLER_0_11_193
*346 FILLER_0_11_205
*347 FILLER_0_11_217
*348 FILLER_0_11_223
*349 FILLER_0_11_225
*350 FILLER_0_11_237
*351 FILLER_0_11_249
*352 FILLER_0_11_261
*353 FILLER_0_11_27
*354 FILLER_0_11_273
*355 FILLER_0_11_279
*356 FILLER_0_11_281
*357 FILLER_0_11_293
*358 FILLER_0_11_3
*359 FILLER_0_11_305
*360 FILLER_0_11_317
*361 FILLER_0_11_329
*362 FILLER_0_11_335
*363 FILLER_0_11_337
*364 FILLER_0_11_349
*365 FILLER_0_11_39
*366 FILLER_0_11_51
*367 FILLER_0_11_55
*368 FILLER_0_11_57
*369 FILLER_0_11_69
*370 FILLER_0_11_81
*371 FILLER_0_11_93
*372 FILLER_0_12_109
*373 FILLER_0_12_121
*374 FILLER_0_12_133
*375 FILLER_0_12_139
*376 FILLER_0_12_141
*377 FILLER_0_12_15
*378 FILLER_0_12_153
*379 FILLER_0_12_165
*380 FILLER_0_12_177
*381 FILLER_0_12_189
*382 FILLER_0_12_195
*383 FILLER_0_12_197
*384 FILLER_0_12_209
*385 FILLER_0_12_221
*386 FILLER_0_12_233
*387 FILLER_0_12_245
*388 FILLER_0_12_251
*389 FILLER_0_12_253
*390 FILLER_0_12_265
*391 FILLER_0_12_27
*392 FILLER_0_12_277
*393 FILLER_0_12_289
*394 FILLER_0_12_29
*395 FILLER_0_12_3
*396 FILLER_0_12_301
*397 FILLER_0_12_307
*398 FILLER_0_12_309
*399 FILLER_0_12_321
*400 FILLER_0_12_333
*401 FILLER_0_12_345
*402 FILLER_0_12_41
*403 FILLER_0_12_53
*404 FILLER_0_12_65
*405 FILLER_0_12_77
*406 FILLER_0_12_83
*407 FILLER_0_12_85
*408 FILLER_0_12_97
*409 FILLER_0_13_105
*410 FILLER_0_13_111
*411 FILLER_0_13_113
*412 FILLER_0_13_125
*413 FILLER_0_13_137
*414 FILLER_0_13_149
*415 FILLER_0_13_15
*416 FILLER_0_13_161
*417 FILLER_0_13_167
*418 FILLER_0_13_169
*419 FILLER_0_13_181
*420 FILLER_0_13_193
*421 FILLER_0_13_205
*422 FILLER_0_13_217
*423 FILLER_0_13_223
*424 FILLER_0_13_225
*425 FILLER_0_13_237
*426 FILLER_0_13_249
*427 FILLER_0_13_261
*428 FILLER_0_13_27
*429 FILLER_0_13_273
*430 FILLER_0_13_279
*431 FILLER_0_13_281
*432 FILLER_0_13_293
*433 FILLER_0_13_3
*434 FILLER_0_13_305
*435 FILLER_0_13_317
*436 FILLER_0_13_329
*437 FILLER_0_13_335
*438 FILLER_0_13_337
*439 FILLER_0_13_349
*440 FILLER_0_13_39
*441 FILLER_0_13_51
*442 FILLER_0_13_55
*443 FILLER_0_13_57
*444 FILLER_0_13_69
*445 FILLER_0_13_81
*446 FILLER_0_13_93
*447 FILLER_0_14_109
*448 FILLER_0_14_121
*449 FILLER_0_14_133
*450 FILLER_0_14_139
*451 FILLER_0_14_141
*452 FILLER_0_14_15
*453 FILLER_0_14_153
*454 FILLER_0_14_165
*455 FILLER_0_14_177
*456 FILLER_0_14_189
*457 FILLER_0_14_195
*458 FILLER_0_14_197
*459 FILLER_0_14_209
*460 FILLER_0_14_221
*461 FILLER_0_14_233
*462 FILLER_0_14_245
*463 FILLER_0_14_251
*464 FILLER_0_14_253
*465 FILLER_0_14_265
*466 FILLER_0_14_27
*467 FILLER_0_14_277
*468 FILLER_0_14_289
*469 FILLER_0_14_29
*470 FILLER_0_14_3
*471 FILLER_0_14_301
*472 FILLER_0_14_307
*473 FILLER_0_14_309
*474 FILLER_0_14_321
*475 FILLER_0_14_333
*476 FILLER_0_14_345
*477 FILLER_0_14_41
*478 FILLER_0_14_53
*479 FILLER_0_14_65
*480 FILLER_0_14_77
*481 FILLER_0_14_83
*482 FILLER_0_14_85
*483 FILLER_0_14_97
*484 FILLER_0_15_105
*485 FILLER_0_15_111
*486 FILLER_0_15_113
*487 FILLER_0_15_125
*488 FILLER_0_15_137
*489 FILLER_0_15_149
*490 FILLER_0_15_15
*491 FILLER_0_15_161
*492 FILLER_0_15_167
*493 FILLER_0_15_169
*494 FILLER_0_15_181
*495 FILLER_0_15_193
*496 FILLER_0_15_205
*497 FILLER_0_15_217
*498 FILLER_0_15_223
*499 FILLER_0_15_225
*500 FILLER_0_15_237
*501 FILLER_0_15_249
*502 FILLER_0_15_261
*503 FILLER_0_15_27
*504 FILLER_0_15_273
*505 FILLER_0_15_279
*506 FILLER_0_15_281
*507 FILLER_0_15_293
*508 FILLER_0_15_3
*509 FILLER_0_15_305
*510 FILLER_0_15_317
*511 FILLER_0_15_329
*512 FILLER_0_15_335
*513 FILLER_0_15_337
*514 FILLER_0_15_349
*515 FILLER_0_15_39
*516 FILLER_0_15_51
*517 FILLER_0_15_55
*518 FILLER_0_15_57
*519 FILLER_0_15_69
*520 FILLER_0_15_81
*521 FILLER_0_15_93
*522 FILLER_0_16_109
*523 FILLER_0_16_121
*524 FILLER_0_16_133
*525 FILLER_0_16_139
*526 FILLER_0_16_141
*527 FILLER_0_16_15
*528 FILLER_0_16_153
*529 FILLER_0_16_165
*530 FILLER_0_16_177
*531 FILLER_0_16_189
*532 FILLER_0_16_195
*533 FILLER_0_16_197
*534 FILLER_0_16_209
*535 FILLER_0_16_221
*536 FILLER_0_16_233
*537 FILLER_0_16_245
*538 FILLER_0_16_251
*539 FILLER_0_16_253
*540 FILLER_0_16_265
*541 FILLER_0_16_27
*542 FILLER_0_16_277
*543 FILLER_0_16_289
*544 FILLER_0_16_29
*545 FILLER_0_16_3
*546 FILLER_0_16_301
*547 FILLER_0_16_307
*548 FILLER_0_16_309
*549 FILLER_0_16_321
*550 FILLER_0_16_333
*551 FILLER_0_16_345
*552 FILLER_0_16_41
*553 FILLER_0_16_53
*554 FILLER_0_16_65
*555 FILLER_0_16_77
*556 FILLER_0_16_83
*557 FILLER_0_16_85
*558 FILLER_0_16_97
*559 FILLER_0_17_105
*560 FILLER_0_17_111
*561 FILLER_0_17_113
*562 FILLER_0_17_125
*563 FILLER_0_17_137
*564 FILLER_0_17_149
*565 FILLER_0_17_15
*566 FILLER_0_17_161
*567 FILLER_0_17_167
*568 FILLER_0_17_169
*569 FILLER_0_17_181
*570 FILLER_0_17_193
*571 FILLER_0_17_205
*572 FILLER_0_17_217
*573 FILLER_0_17_223
*574 FILLER_0_17_225
*575 FILLER_0_17_237
*576 FILLER_0_17_249
*577 FILLER_0_17_261
*578 FILLER_0_17_27
*579 FILLER_0_17_273
*580 FILLER_0_17_279
*581 FILLER_0_17_281
*582 FILLER_0_17_293
*583 FILLER_0_17_3
*584 FILLER_0_17_305
*585 FILLER_0_17_317
*586 FILLER_0_17_329
*587 FILLER_0_17_335
*588 FILLER_0_17_337
*589 FILLER_0_17_349
*590 FILLER_0_17_39
*591 FILLER_0_17_51
*592 FILLER_0_17_55
*593 FILLER_0_17_57
*594 FILLER_0_17_69
*595 FILLER_0_17_81
*596 FILLER_0_17_93
*597 FILLER_0_18_109
*598 FILLER_0_18_121
*599 FILLER_0_18_133
*600 FILLER_0_18_139
*601 FILLER_0_18_141
*602 FILLER_0_18_15
*603 FILLER_0_18_153
*604 FILLER_0_18_165
*605 FILLER_0_18_177
*606 FILLER_0_18_189
*607 FILLER_0_18_195
*608 FILLER_0_18_197
*609 FILLER_0_18_209
*610 FILLER_0_18_221
*611 FILLER_0_18_233
*612 FILLER_0_18_245
*613 FILLER_0_18_251
*614 FILLER_0_18_253
*615 FILLER_0_18_265
*616 FILLER_0_18_27
*617 FILLER_0_18_277
*618 FILLER_0_18_289
*619 FILLER_0_18_29
*620 FILLER_0_18_3
*621 FILLER_0_18_301
*622 FILLER_0_18_307
*623 FILLER_0_18_309
*624 FILLER_0_18_321
*625 FILLER_0_18_333
*626 FILLER_0_18_345
*627 FILLER_0_18_41
*628 FILLER_0_18_53
*629 FILLER_0_18_65
*630 FILLER_0_18_77
*631 FILLER_0_18_83
*632 FILLER_0_18_85
*633 FILLER_0_18_97
*634 FILLER_0_19_105
*635 FILLER_0_19_111
*636 FILLER_0_19_113
*637 FILLER_0_19_125
*638 FILLER_0_19_137
*639 FILLER_0_19_149
*640 FILLER_0_19_15
*641 FILLER_0_19_161
*642 FILLER_0_19_167
*643 FILLER_0_19_169
*644 FILLER_0_19_181
*645 FILLER_0_19_193
*646 FILLER_0_19_205
*647 FILLER_0_19_217
*648 FILLER_0_19_223
*649 FILLER_0_19_225
*650 FILLER_0_19_237
*651 FILLER_0_19_249
*652 FILLER_0_19_261
*653 FILLER_0_19_27
*654 FILLER_0_19_273
*655 FILLER_0_19_279
*656 FILLER_0_19_281
*657 FILLER_0_19_293
*658 FILLER_0_19_3
*659 FILLER_0_19_305
*660 FILLER_0_19_317
*661 FILLER_0_19_329
*662 FILLER_0_19_335
*663 FILLER_0_19_337
*664 FILLER_0_19_349
*665 FILLER_0_19_39
*666 FILLER_0_19_51
*667 FILLER_0_19_55
*668 FILLER_0_19_57
*669 FILLER_0_19_69
*670 FILLER_0_19_81
*671 FILLER_0_19_93
*672 FILLER_0_1_105
*673 FILLER_0_1_111
*674 FILLER_0_1_113
*675 FILLER_0_1_125
*676 FILLER_0_1_137
*677 FILLER_0_1_149
*678 FILLER_0_1_15
*679 FILLER_0_1_161
*680 FILLER_0_1_167
*681 FILLER_0_1_169
*682 FILLER_0_1_181
*683 FILLER_0_1_193
*684 FILLER_0_1_205
*685 FILLER_0_1_217
*686 FILLER_0_1_223
*687 FILLER_0_1_225
*688 FILLER_0_1_237
*689 FILLER_0_1_249
*690 FILLER_0_1_261
*691 FILLER_0_1_27
*692 FILLER_0_1_273
*693 FILLER_0_1_279
*694 FILLER_0_1_281
*695 FILLER_0_1_293
*696 FILLER_0_1_3
*697 FILLER_0_1_305
*698 FILLER_0_1_317
*699 FILLER_0_1_329
*700 FILLER_0_1_335
*701 FILLER_0_1_337
*702 FILLER_0_1_349
*703 FILLER_0_1_39
*704 FILLER_0_1_51
*705 FILLER_0_1_55
*706 FILLER_0_1_57
*707 FILLER_0_1_69
*708 FILLER_0_1_81
*709 FILLER_0_1_93
*710 FILLER_0_20_109
*711 FILLER_0_20_121
*712 FILLER_0_20_133
*713 FILLER_0_20_139
*714 FILLER_0_20_141
*715 FILLER_0_20_15
*716 FILLER_0_20_153
*717 FILLER_0_20_165
*718 FILLER_0_20_177
*719 FILLER_0_20_189
*720 FILLER_0_20_195
*721 FILLER_0_20_197
*722 FILLER_0_20_209
*723 FILLER_0_20_221
*724 FILLER_0_20_233
*725 FILLER_0_20_245
*726 FILLER_0_20_251
*727 FILLER_0_20_253
*728 FILLER_0_20_265
*729 FILLER_0_20_27
*730 FILLER_0_20_277
*731 FILLER_0_20_289
*732 FILLER_0_20_29
*733 FILLER_0_20_3
*734 FILLER_0_20_301
*735 FILLER_0_20_307
*736 FILLER_0_20_309
*737 FILLER_0_20_321
*738 FILLER_0_20_333
*739 FILLER_0_20_345
*740 FILLER_0_20_41
*741 FILLER_0_20_53
*742 FILLER_0_20_65
*743 FILLER_0_20_77
*744 FILLER_0_20_83
*745 FILLER_0_20_85
*746 FILLER_0_20_97
*747 FILLER_0_21_105
*748 FILLER_0_21_111
*749 FILLER_0_21_113
*750 FILLER_0_21_125
*751 FILLER_0_21_137
*752 FILLER_0_21_149
*753 FILLER_0_21_15
*754 FILLER_0_21_161
*755 FILLER_0_21_167
*756 FILLER_0_21_169
*757 FILLER_0_21_181
*758 FILLER_0_21_193
*759 FILLER_0_21_205
*760 FILLER_0_21_217
*761 FILLER_0_21_223
*762 FILLER_0_21_225
*763 FILLER_0_21_237
*764 FILLER_0_21_249
*765 FILLER_0_21_261
*766 FILLER_0_21_27
*767 FILLER_0_21_273
*768 FILLER_0_21_279
*769 FILLER_0_21_281
*770 FILLER_0_21_293
*771 FILLER_0_21_3
*772 FILLER_0_21_305
*773 FILLER_0_21_317
*774 FILLER_0_21_329
*775 FILLER_0_21_335
*776 FILLER_0_21_337
*777 FILLER_0_21_349
*778 FILLER_0_21_39
*779 FILLER_0_21_51
*780 FILLER_0_21_55
*781 FILLER_0_21_57
*782 FILLER_0_21_69
*783 FILLER_0_21_81
*784 FILLER_0_21_93
*785 FILLER_0_22_109
*786 FILLER_0_22_121
*787 FILLER_0_22_133
*788 FILLER_0_22_139
*789 FILLER_0_22_141
*790 FILLER_0_22_15
*791 FILLER_0_22_153
*792 FILLER_0_22_165
*793 FILLER_0_22_177
*794 FILLER_0_22_189
*795 FILLER_0_22_195
*796 FILLER_0_22_197
*797 FILLER_0_22_209
*798 FILLER_0_22_221
*799 FILLER_0_22_233
*800 FILLER_0_22_245
*801 FILLER_0_22_251
*802 FILLER_0_22_253
*803 FILLER_0_22_265
*804 FILLER_0_22_27
*805 FILLER_0_22_277
*806 FILLER_0_22_289
*807 FILLER_0_22_29
*808 FILLER_0_22_3
*809 FILLER_0_22_301
*810 FILLER_0_22_307
*811 FILLER_0_22_309
*812 FILLER_0_22_321
*813 FILLER_0_22_333
*814 FILLER_0_22_345
*815 FILLER_0_22_41
*816 FILLER_0_22_53
*817 FILLER_0_22_65
*818 FILLER_0_22_77
*819 FILLER_0_22_83
*820 FILLER_0_22_85
*821 FILLER_0_22_97
*822 FILLER_0_23_105
*823 FILLER_0_23_111
*824 FILLER_0_23_113
*825 FILLER_0_23_125
*826 FILLER_0_23_137
*827 FILLER_0_23_149
*828 FILLER_0_23_15
*829 FILLER_0_23_161
*830 FILLER_0_23_167
*831 FILLER_0_23_169
*832 FILLER_0_23_181
*833 FILLER_0_23_193
*834 FILLER_0_23_205
*835 FILLER_0_23_217
*836 FILLER_0_23_223
*837 FILLER_0_23_225
*838 FILLER_0_23_237
*839 FILLER_0_23_249
*840 FILLER_0_23_261
*841 FILLER_0_23_27
*842 FILLER_0_23_273
*843 FILLER_0_23_279
*844 FILLER_0_23_281
*845 FILLER_0_23_293
*846 FILLER_0_23_3
*847 FILLER_0_23_305
*848 FILLER_0_23_317
*849 FILLER_0_23_329
*850 FILLER_0_23_335
*851 FILLER_0_23_337
*852 FILLER_0_23_349
*853 FILLER_0_23_39
*854 FILLER_0_23_51
*855 FILLER_0_23_55
*856 FILLER_0_23_57
*857 FILLER_0_23_69
*858 FILLER_0_23_81
*859 FILLER_0_23_93
*860 FILLER_0_24_109
*861 FILLER_0_24_121
*862 FILLER_0_24_133
*863 FILLER_0_24_139
*864 FILLER_0_24_141
*865 FILLER_0_24_15
*866 FILLER_0_24_153
*867 FILLER_0_24_165
*868 FILLER_0_24_177
*869 FILLER_0_24_189
*870 FILLER_0_24_195
*871 FILLER_0_24_197
*872 FILLER_0_24_209
*873 FILLER_0_24_221
*874 FILLER_0_24_233
*875 FILLER_0_24_245
*876 FILLER_0_24_251
*877 FILLER_0_24_253
*878 FILLER_0_24_265
*879 FILLER_0_24_27
*880 FILLER_0_24_277
*881 FILLER_0_24_289
*882 FILLER_0_24_29
*883 FILLER_0_24_3
*884 FILLER_0_24_301
*885 FILLER_0_24_307
*886 FILLER_0_24_309
*887 FILLER_0_24_321
*888 FILLER_0_24_333
*889 FILLER_0_24_345
*890 FILLER_0_24_41
*891 FILLER_0_24_53
*892 FILLER_0_24_65
*893 FILLER_0_24_77
*894 FILLER_0_24_83
*895 FILLER_0_24_85
*896 FILLER_0_24_97
*897 FILLER_0_25_105
*898 FILLER_0_25_111
*899 FILLER_0_25_113
*900 FILLER_0_25_125
*901 FILLER_0_25_137
*902 FILLER_0_25_149
*903 FILLER_0_25_15
*904 FILLER_0_25_161
*905 FILLER_0_25_167
*906 FILLER_0_25_169
*907 FILLER_0_25_181
*908 FILLER_0_25_193
*909 FILLER_0_25_205
*910 FILLER_0_25_217
*911 FILLER_0_25_223
*912 FILLER_0_25_225
*913 FILLER_0_25_237
*914 FILLER_0_25_249
*915 FILLER_0_25_261
*916 FILLER_0_25_27
*917 FILLER_0_25_273
*918 FILLER_0_25_279
*919 FILLER_0_25_281
*920 FILLER_0_25_293
*921 FILLER_0_25_3
*922 FILLER_0_25_305
*923 FILLER_0_25_317
*924 FILLER_0_25_329
*925 FILLER_0_25_335
*926 FILLER_0_25_337
*927 FILLER_0_25_349
*928 FILLER_0_25_39
*929 FILLER_0_25_51
*930 FILLER_0_25_55
*931 FILLER_0_25_57
*932 FILLER_0_25_69
*933 FILLER_0_25_81
*934 FILLER_0_25_93
*935 FILLER_0_26_109
*936 FILLER_0_26_121
*937 FILLER_0_26_133
*938 FILLER_0_26_139
*939 FILLER_0_26_141
*940 FILLER_0_26_15
*941 FILLER_0_26_153
*942 FILLER_0_26_165
*943 FILLER_0_26_177
*944 FILLER_0_26_189
*945 FILLER_0_26_195
*946 FILLER_0_26_197
*947 FILLER_0_26_209
*948 FILLER_0_26_221
*949 FILLER_0_26_233
*950 FILLER_0_26_245
*951 FILLER_0_26_251
*952 FILLER_0_26_253
*953 FILLER_0_26_265
*954 FILLER_0_26_27
*955 FILLER_0_26_277
*956 FILLER_0_26_289
*957 FILLER_0_26_29
*958 FILLER_0_26_3
*959 FILLER_0_26_301
*960 FILLER_0_26_307
*961 FILLER_0_26_309
*962 FILLER_0_26_321
*963 FILLER_0_26_333
*964 FILLER_0_26_345
*965 FILLER_0_26_41
*966 FILLER_0_26_53
*967 FILLER_0_26_65
*968 FILLER_0_26_77
*969 FILLER_0_26_83
*970 FILLER_0_26_85
*971 FILLER_0_26_97
*972 FILLER_0_27_105
*973 FILLER_0_27_111
*974 FILLER_0_27_113
*975 FILLER_0_27_125
*976 FILLER_0_27_137
*977 FILLER_0_27_149
*978 FILLER_0_27_15
*979 FILLER_0_27_161
*980 FILLER_0_27_167
*981 FILLER_0_27_169
*982 FILLER_0_27_181
*983 FILLER_0_27_193
*984 FILLER_0_27_205
*985 FILLER_0_27_217
*986 FILLER_0_27_223
*987 FILLER_0_27_225
*988 FILLER_0_27_237
*989 FILLER_0_27_265
*990 FILLER_0_27_27
*991 FILLER_0_27_270
*992 FILLER_0_27_278
*993 FILLER_0_27_281
*994 FILLER_0_27_298
*995 FILLER_0_27_3
*996 FILLER_0_27_310
*997 FILLER_0_27_322
*998 FILLER_0_27_334
*999 FILLER_0_27_337
*1000 FILLER_0_27_349
*1001 FILLER_0_27_39
*1002 FILLER_0_27_51
*1003 FILLER_0_27_55
*1004 FILLER_0_27_57
*1005 FILLER_0_27_69
*1006 FILLER_0_27_81
*1007 FILLER_0_27_93
*1008 FILLER_0_28_109
*1009 FILLER_0_28_121
*1010 FILLER_0_28_133
*1011 FILLER_0_28_139
*1012 FILLER_0_28_141
*1013 FILLER_0_28_15
*1014 FILLER_0_28_153
*1015 FILLER_0_28_165
*1016 FILLER_0_28_177
*1017 FILLER_0_28_189
*1018 FILLER_0_28_195
*1019 FILLER_0_28_197
*1020 FILLER_0_28_201
*1021 FILLER_0_28_219
*1022 FILLER_0_28_231
*1023 FILLER_0_28_243
*1024 FILLER_0_28_247
*1025 FILLER_0_28_27
*1026 FILLER_0_28_287
*1027 FILLER_0_28_29
*1028 FILLER_0_28_299
*1029 FILLER_0_28_3
*1030 FILLER_0_28_309
*1031 FILLER_0_28_321
*1032 FILLER_0_28_333
*1033 FILLER_0_28_345
*1034 FILLER_0_28_41
*1035 FILLER_0_28_53
*1036 FILLER_0_28_65
*1037 FILLER_0_28_77
*1038 FILLER_0_28_83
*1039 FILLER_0_28_85
*1040 FILLER_0_28_97
*1041 FILLER_0_29_105
*1042 FILLER_0_29_111
*1043 FILLER_0_29_113
*1044 FILLER_0_29_121
*1045 FILLER_0_29_125
*1046 FILLER_0_29_137
*1047 FILLER_0_29_15
*1048 FILLER_0_29_165
*1049 FILLER_0_29_169
*1050 FILLER_0_29_176
*1051 FILLER_0_29_188
*1052 FILLER_0_29_200
*1053 FILLER_0_29_206
*1054 FILLER_0_29_218
*1055 FILLER_0_29_225
*1056 FILLER_0_29_229
*1057 FILLER_0_29_256
*1058 FILLER_0_29_265
*1059 FILLER_0_29_27
*1060 FILLER_0_29_276
*1061 FILLER_0_29_286
*1062 FILLER_0_29_295
*1063 FILLER_0_29_3
*1064 FILLER_0_29_320
*1065 FILLER_0_29_324
*1066 FILLER_0_29_331
*1067 FILLER_0_29_335
*1068 FILLER_0_29_337
*1069 FILLER_0_29_349
*1070 FILLER_0_29_39
*1071 FILLER_0_29_51
*1072 FILLER_0_29_55
*1073 FILLER_0_29_57
*1074 FILLER_0_29_69
*1075 FILLER_0_29_81
*1076 FILLER_0_29_93
*1077 FILLER_0_2_109
*1078 FILLER_0_2_121
*1079 FILLER_0_2_133
*1080 FILLER_0_2_139
*1081 FILLER_0_2_141
*1082 FILLER_0_2_15
*1083 FILLER_0_2_153
*1084 FILLER_0_2_165
*1085 FILLER_0_2_177
*1086 FILLER_0_2_189
*1087 FILLER_0_2_195
*1088 FILLER_0_2_197
*1089 FILLER_0_2_209
*1090 FILLER_0_2_221
*1091 FILLER_0_2_233
*1092 FILLER_0_2_245
*1093 FILLER_0_2_251
*1094 FILLER_0_2_253
*1095 FILLER_0_2_265
*1096 FILLER_0_2_27
*1097 FILLER_0_2_277
*1098 FILLER_0_2_289
*1099 FILLER_0_2_29
*1100 FILLER_0_2_3
*1101 FILLER_0_2_301
*1102 FILLER_0_2_307
*1103 FILLER_0_2_309
*1104 FILLER_0_2_321
*1105 FILLER_0_2_333
*1106 FILLER_0_2_345
*1107 FILLER_0_2_41
*1108 FILLER_0_2_53
*1109 FILLER_0_2_65
*1110 FILLER_0_2_77
*1111 FILLER_0_2_83
*1112 FILLER_0_2_85
*1113 FILLER_0_2_97
*1114 FILLER_0_30_109
*1115 FILLER_0_30_113
*1116 FILLER_0_30_136
*1117 FILLER_0_30_141
*1118 FILLER_0_30_149
*1119 FILLER_0_30_15
*1120 FILLER_0_30_153
*1121 FILLER_0_30_165
*1122 FILLER_0_30_173
*1123 FILLER_0_30_183
*1124 FILLER_0_30_190
*1125 FILLER_0_30_197
*1126 FILLER_0_30_209
*1127 FILLER_0_30_213
*1128 FILLER_0_30_230
*1129 FILLER_0_30_242
*1130 FILLER_0_30_249
*1131 FILLER_0_30_27
*1132 FILLER_0_30_286
*1133 FILLER_0_30_29
*1134 FILLER_0_30_3
*1135 FILLER_0_30_309
*1136 FILLER_0_30_317
*1137 FILLER_0_30_349
*1138 FILLER_0_30_41
*1139 FILLER_0_30_53
*1140 FILLER_0_30_65
*1141 FILLER_0_30_77
*1142 FILLER_0_30_83
*1143 FILLER_0_30_85
*1144 FILLER_0_30_97
*1145 FILLER_0_31_105
*1146 FILLER_0_31_111
*1147 FILLER_0_31_133
*1148 FILLER_0_31_141
*1149 FILLER_0_31_15
*1150 FILLER_0_31_159
*1151 FILLER_0_31_169
*1152 FILLER_0_31_177
*1153 FILLER_0_31_181
*1154 FILLER_0_31_188
*1155 FILLER_0_31_196
*1156 FILLER_0_31_205
*1157 FILLER_0_31_238
*1158 FILLER_0_31_27
*1159 FILLER_0_31_278
*1160 FILLER_0_31_284
*1161 FILLER_0_31_288
*1162 FILLER_0_31_3
*1163 FILLER_0_31_303
*1164 FILLER_0_31_309
*1165 FILLER_0_31_313
*1166 FILLER_0_31_321
*1167 FILLER_0_31_330
*1168 FILLER_0_31_337
*1169 FILLER_0_31_349
*1170 FILLER_0_31_39
*1171 FILLER_0_31_51
*1172 FILLER_0_31_55
*1173 FILLER_0_31_57
*1174 FILLER_0_31_69
*1175 FILLER_0_31_81
*1176 FILLER_0_31_93
*1177 FILLER_0_32_127
*1178 FILLER_0_32_139
*1179 FILLER_0_32_145
*1180 FILLER_0_32_15
*1181 FILLER_0_32_153
*1182 FILLER_0_32_157
*1183 FILLER_0_32_178
*1184 FILLER_0_32_192
*1185 FILLER_0_32_197
*1186 FILLER_0_32_220
*1187 FILLER_0_32_236
*1188 FILLER_0_32_27
*1189 FILLER_0_32_284
*1190 FILLER_0_32_29
*1191 FILLER_0_32_290
*1192 FILLER_0_32_297
*1193 FILLER_0_32_3
*1194 FILLER_0_32_309
*1195 FILLER_0_32_326
*1196 FILLER_0_32_330
*1197 FILLER_0_32_347
*1198 FILLER_0_32_41
*1199 FILLER_0_32_53
*1200 FILLER_0_32_65
*1201 FILLER_0_32_69
*1202 FILLER_0_32_81
*1203 FILLER_0_33_111
*1204 FILLER_0_33_113
*1205 FILLER_0_33_119
*1206 FILLER_0_33_139
*1207 FILLER_0_33_145
*1208 FILLER_0_33_15
*1209 FILLER_0_33_152
*1210 FILLER_0_33_164
*1211 FILLER_0_33_169
*1212 FILLER_0_33_181
*1213 FILLER_0_33_189
*1214 FILLER_0_33_217
*1215 FILLER_0_33_221
*1216 FILLER_0_33_225
*1217 FILLER_0_33_233
*1218 FILLER_0_33_242
*1219 FILLER_0_33_259
*1220 FILLER_0_33_266
*1221 FILLER_0_33_27
*1222 FILLER_0_33_276
*1223 FILLER_0_33_281
*1224 FILLER_0_33_293
*1225 FILLER_0_33_3
*1226 FILLER_0_33_310
*1227 FILLER_0_33_317
*1228 FILLER_0_33_325
*1229 FILLER_0_33_334
*1230 FILLER_0_33_340
*1231 FILLER_0_33_348
*1232 FILLER_0_33_39
*1233 FILLER_0_33_51
*1234 FILLER_0_33_55
*1235 FILLER_0_33_57
*1236 FILLER_0_33_61
*1237 FILLER_0_33_78
*1238 FILLER_0_33_88
*1239 FILLER_0_33_93
*1240 FILLER_0_33_99
*1241 FILLER_0_34_104
*1242 FILLER_0_34_115
*1243 FILLER_0_34_127
*1244 FILLER_0_34_139
*1245 FILLER_0_34_141
*1246 FILLER_0_34_15
*1247 FILLER_0_34_163
*1248 FILLER_0_34_177
*1249 FILLER_0_34_181
*1250 FILLER_0_34_189
*1251 FILLER_0_34_194
*1252 FILLER_0_34_197
*1253 FILLER_0_34_205
*1254 FILLER_0_34_216
*1255 FILLER_0_34_238
*1256 FILLER_0_34_250
*1257 FILLER_0_34_261
*1258 FILLER_0_34_269
*1259 FILLER_0_34_27
*1260 FILLER_0_34_280
*1261 FILLER_0_34_29
*1262 FILLER_0_34_290
*1263 FILLER_0_34_297
*1264 FILLER_0_34_3
*1265 FILLER_0_34_305
*1266 FILLER_0_34_316
*1267 FILLER_0_34_333
*1268 FILLER_0_34_41
*1269 FILLER_0_34_53
*1270 FILLER_0_34_65
*1271 FILLER_0_34_77
*1272 FILLER_0_34_83
*1273 FILLER_0_34_96
*1274 FILLER_0_35_104
*1275 FILLER_0_35_129
*1276 FILLER_0_35_140
*1277 FILLER_0_35_15
*1278 FILLER_0_35_152
*1279 FILLER_0_35_160
*1280 FILLER_0_35_169
*1281 FILLER_0_35_179
*1282 FILLER_0_35_183
*1283 FILLER_0_35_191
*1284 FILLER_0_35_203
*1285 FILLER_0_35_209
*1286 FILLER_0_35_217
*1287 FILLER_0_35_233
*1288 FILLER_0_35_239
*1289 FILLER_0_35_245
*1290 FILLER_0_35_258
*1291 FILLER_0_35_266
*1292 FILLER_0_35_27
*1293 FILLER_0_35_276
*1294 FILLER_0_35_281
*1295 FILLER_0_35_297
*1296 FILLER_0_35_3
*1297 FILLER_0_35_309
*1298 FILLER_0_35_321
*1299 FILLER_0_35_333
*1300 FILLER_0_35_337
*1301 FILLER_0_35_349
*1302 FILLER_0_35_39
*1303 FILLER_0_35_51
*1304 FILLER_0_35_55
*1305 FILLER_0_35_73
*1306 FILLER_0_36_102
*1307 FILLER_0_36_110
*1308 FILLER_0_36_125
*1309 FILLER_0_36_134
*1310 FILLER_0_36_15
*1311 FILLER_0_36_158
*1312 FILLER_0_36_162
*1313 FILLER_0_36_168
*1314 FILLER_0_36_180
*1315 FILLER_0_36_192
*1316 FILLER_0_36_227
*1317 FILLER_0_36_242
*1318 FILLER_0_36_250
*1319 FILLER_0_36_253
*1320 FILLER_0_36_257
*1321 FILLER_0_36_27
*1322 FILLER_0_36_276
*1323 FILLER_0_36_288
*1324 FILLER_0_36_29
*1325 FILLER_0_36_296
*1326 FILLER_0_36_3
*1327 FILLER_0_36_306
*1328 FILLER_0_36_332
*1329 FILLER_0_36_350
*1330 FILLER_0_36_41
*1331 FILLER_0_36_53
*1332 FILLER_0_36_65
*1333 FILLER_0_36_83
*1334 FILLER_0_36_90
*1335 FILLER_0_37_113
*1336 FILLER_0_37_121
*1337 FILLER_0_37_136
*1338 FILLER_0_37_15
*1339 FILLER_0_37_159
*1340 FILLER_0_37_167
*1341 FILLER_0_37_186
*1342 FILLER_0_37_198
*1343 FILLER_0_37_210
*1344 FILLER_0_37_219
*1345 FILLER_0_37_223
*1346 FILLER_0_37_225
*1347 FILLER_0_37_229
*1348 FILLER_0_37_257
*1349 FILLER_0_37_27
*1350 FILLER_0_37_281
*1351 FILLER_0_37_3
*1352 FILLER_0_37_301
*1353 FILLER_0_37_313
*1354 FILLER_0_37_323
*1355 FILLER_0_37_340
*1356 FILLER_0_37_348
*1357 FILLER_0_37_39
*1358 FILLER_0_37_51
*1359 FILLER_0_37_55
*1360 FILLER_0_37_57
*1361 FILLER_0_37_65
*1362 FILLER_0_37_72
*1363 FILLER_0_37_88
*1364 FILLER_0_38_109
*1365 FILLER_0_38_113
*1366 FILLER_0_38_126
*1367 FILLER_0_38_134
*1368 FILLER_0_38_14
*1369 FILLER_0_38_144
*1370 FILLER_0_38_150
*1371 FILLER_0_38_169
*1372 FILLER_0_38_177
*1373 FILLER_0_38_18
*1374 FILLER_0_38_195
*1375 FILLER_0_38_214
*1376 FILLER_0_38_22
*1377 FILLER_0_38_222
*1378 FILLER_0_38_241
*1379 FILLER_0_38_249
*1380 FILLER_0_38_265
*1381 FILLER_0_38_270
*1382 FILLER_0_38_274
*1383 FILLER_0_38_278
*1384 FILLER_0_38_281
*1385 FILLER_0_38_298
*1386 FILLER_0_38_3
*1387 FILLER_0_38_315
*1388 FILLER_0_38_32
*1389 FILLER_0_38_337
*1390 FILLER_0_38_349
*1391 FILLER_0_38_38
*1392 FILLER_0_38_42
*1393 FILLER_0_38_46
*1394 FILLER_0_38_50
*1395 FILLER_0_38_54
*1396 FILLER_0_38_57
*1397 FILLER_0_38_78
*1398 FILLER_0_3_105
*1399 FILLER_0_3_111
*1400 FILLER_0_3_113
*1401 FILLER_0_3_125
*1402 FILLER_0_3_137
*1403 FILLER_0_3_149
*1404 FILLER_0_3_15
*1405 FILLER_0_3_161
*1406 FILLER_0_3_167
*1407 FILLER_0_3_169
*1408 FILLER_0_3_181
*1409 FILLER_0_3_193
*1410 FILLER_0_3_205
*1411 FILLER_0_3_217
*1412 FILLER_0_3_223
*1413 FILLER_0_3_225
*1414 FILLER_0_3_237
*1415 FILLER_0_3_249
*1416 FILLER_0_3_261
*1417 FILLER_0_3_27
*1418 FILLER_0_3_273
*1419 FILLER_0_3_279
*1420 FILLER_0_3_281
*1421 FILLER_0_3_293
*1422 FILLER_0_3_3
*1423 FILLER_0_3_305
*1424 FILLER_0_3_317
*1425 FILLER_0_3_329
*1426 FILLER_0_3_335
*1427 FILLER_0_3_337
*1428 FILLER_0_3_349
*1429 FILLER_0_3_39
*1430 FILLER_0_3_51
*1431 FILLER_0_3_55
*1432 FILLER_0_3_57
*1433 FILLER_0_3_69
*1434 FILLER_0_3_81
*1435 FILLER_0_3_93
*1436 FILLER_0_4_109
*1437 FILLER_0_4_121
*1438 FILLER_0_4_133
*1439 FILLER_0_4_139
*1440 FILLER_0_4_141
*1441 FILLER_0_4_15
*1442 FILLER_0_4_153
*1443 FILLER_0_4_165
*1444 FILLER_0_4_177
*1445 FILLER_0_4_189
*1446 FILLER_0_4_195
*1447 FILLER_0_4_197
*1448 FILLER_0_4_209
*1449 FILLER_0_4_221
*1450 FILLER_0_4_233
*1451 FILLER_0_4_245
*1452 FILLER_0_4_251
*1453 FILLER_0_4_253
*1454 FILLER_0_4_265
*1455 FILLER_0_4_27
*1456 FILLER_0_4_277
*1457 FILLER_0_4_289
*1458 FILLER_0_4_29
*1459 FILLER_0_4_3
*1460 FILLER_0_4_301
*1461 FILLER_0_4_307
*1462 FILLER_0_4_309
*1463 FILLER_0_4_321
*1464 FILLER_0_4_333
*1465 FILLER_0_4_345
*1466 FILLER_0_4_41
*1467 FILLER_0_4_53
*1468 FILLER_0_4_65
*1469 FILLER_0_4_77
*1470 FILLER_0_4_83
*1471 FILLER_0_4_85
*1472 FILLER_0_4_97
*1473 FILLER_0_5_105
*1474 FILLER_0_5_111
*1475 FILLER_0_5_113
*1476 FILLER_0_5_125
*1477 FILLER_0_5_137
*1478 FILLER_0_5_149
*1479 FILLER_0_5_15
*1480 FILLER_0_5_161
*1481 FILLER_0_5_167
*1482 FILLER_0_5_169
*1483 FILLER_0_5_181
*1484 FILLER_0_5_193
*1485 FILLER_0_5_205
*1486 FILLER_0_5_217
*1487 FILLER_0_5_223
*1488 FILLER_0_5_225
*1489 FILLER_0_5_237
*1490 FILLER_0_5_249
*1491 FILLER_0_5_261
*1492 FILLER_0_5_27
*1493 FILLER_0_5_273
*1494 FILLER_0_5_279
*1495 FILLER_0_5_281
*1496 FILLER_0_5_293
*1497 FILLER_0_5_3
*1498 FILLER_0_5_305
*1499 FILLER_0_5_317
*1500 FILLER_0_5_329
*1501 FILLER_0_5_335
*1502 FILLER_0_5_337
*1503 FILLER_0_5_349
*1504 FILLER_0_5_39
*1505 FILLER_0_5_51
*1506 FILLER_0_5_55
*1507 FILLER_0_5_57
*1508 FILLER_0_5_69
*1509 FILLER_0_5_81
*1510 FILLER_0_5_93
*1511 FILLER_0_6_109
*1512 FILLER_0_6_121
*1513 FILLER_0_6_133
*1514 FILLER_0_6_139
*1515 FILLER_0_6_141
*1516 FILLER_0_6_15
*1517 FILLER_0_6_153
*1518 FILLER_0_6_165
*1519 FILLER_0_6_177
*1520 FILLER_0_6_189