*SPEF "ieee 1481-1999"
*DESIGN "tt_um_ja_TrafficLight"
*DATE "11:11:11 Fri 11 11, 1111"
*VENDOR "OpenRCX"
*PROGRAM "Parallel Extraction"
*VERSION "1.0"
*DESIGN_FLOW "NAME_SCOPE LOCAL" "PIN_CAP NONE"
*DIVIDER /
*DELIMITER :
*BUS_DELIMITER []
*T_UNIT 1 NS
*C_UNIT 1 PF
*R_UNIT 1 OHM
*L_UNIT 1 HENRY

*NAME_MAP
*3 clk
*4 ena
*5 rst_n
*6 ui_in[0]
*7 ui_in[1]
*8 ui_in[2]
*9 ui_in[3]
*10 ui_in[4]
*11 ui_in[5]
*12 ui_in[6]
*13 ui_in[7]
*14 uio_in[0]
*15 uio_in[1]
*16 uio_in[2]
*17 uio_in[3]
*18 uio_in[4]
*19 uio_in[5]
*20 uio_in[6]
*21 uio_in[7]
*22 net4
*23 net5
*24 net6
*25 net7
*26 net8
*27 net9
*28 net10
*29 net11
*30 uio_out[0]
*31 uio_out[1]
*32 uio_out[2]
*33 net12
*34 net13
*35 net14
*36 net15
*37 net16
*38 uo_out[0]
*39 uo_out[1]
*40 uo_out[2]
*41 net17
*42 net18
*43 net19
*44 net20
*45 net21
*46 Green_Light
*47 Red_Light
*48 Vfreq\.counter\[0\]
*49 Vfreq\.counter\[1\]
*50 Vfreq\.counter\[2\]
*51 Vfreq\.counter\[3\]
*52 Vfreq\.counter\[4\]
*53 Vfreq\.counter\[5\]
*54 Vfreq\.counter\[6\]
*55 Vfreq\.counter\[7\]
*56 Vfreq\.second_counter\[0\]
*57 Vfreq\.second_counter\[1\]
*58 Vfreq\.second_counter\[2\]
*59 Vfreq\.second_counter\[3\]
*60 Vfreq\.second_counter\[4\]
*61 Vfreq\.second_counter\[5\]
*62 Vfreq\.second_counter\[6\]
*63 Vfreq\.signal
*64 Yellow_Light
*65 _000_
*66 _001_
*67 _002_
*68 _003_
*69 _004_
*70 _005_
*71 _006_
*72 _007_
*73 _008_
*74 _009_
*75 _010_
*76 _011_
*77 _012_
*78 _013_
*79 _014_
*80 _015_
*81 _016_
*82 _017_
*83 _018_
*84 _019_
*85 _020_
*86 _021_
*87 _022_
*88 _023_
*89 _024_
*90 _025_
*91 _026_
*92 _027_
*93 _028_
*94 _029_
*95 _030_
*96 _031_
*97 _032_
*98 _033_
*99 _034_
*100 _035_
*101 _036_
*102 _037_
*103 _038_
*104 _039_
*105 _040_
*106 _041_
*107 _042_
*108 _043_
*109 _044_
*110 _045_
*111 _046_
*112 _047_
*113 _048_
*114 _049_
*115 _050_
*116 _051_
*117 _052_
*118 _053_
*119 _054_
*120 _055_
*121 _056_
*122 _057_
*123 _058_
*124 _059_
*125 _060_
*126 _061_
*127 _062_
*128 _063_
*129 _064_
*130 _065_
*131 _066_
*132 _067_
*133 _068_
*134 _069_
*135 _070_
*136 _071_
*137 _072_
*138 _073_
*139 _074_
*140 _075_
*141 _076_
*142 _077_
*143 _078_
*144 _079_
*145 _080_
*146 _081_
*147 _082_
*148 _083_
*149 _084_
*150 clknet_0_clk
*151 clknet_1_0__leaf_clk
*152 clknet_1_1__leaf_clk
*153 counter\[0\]
*154 counter\[1\]
*155 counter\[2\]
*156 counter\[3\]
*157 counter\[4\]
*158 counter\[5\]
*159 net1
*160 net2
*161 net22
*162 net23
*163 net24
*164 net25
*165 net26
*166 net27
*167 net3
*168 next_state\[0\]
*169 next_state\[1\]
*170 next_state\[2\]
*171 state\[0\]
*172 state\[1\]
*173 state\[2\]
*174 FILLER_0_0_109
*175 FILLER_0_0_113
*176 FILLER_0_0_125
*177 FILLER_0_0_137
*178 FILLER_0_0_141
*179 FILLER_0_0_15
*180 FILLER_0_0_153
*181 FILLER_0_0_165
*182 FILLER_0_0_169
*183 FILLER_0_0_181
*184 FILLER_0_0_193
*185 FILLER_0_0_197
*186 FILLER_0_0_209
*187 FILLER_0_0_221
*188 FILLER_0_0_225
*189 FILLER_0_0_237
*190 FILLER_0_0_249
*191 FILLER_0_0_253
*192 FILLER_0_0_265
*193 FILLER_0_0_27
*194 FILLER_0_0_277
*195 FILLER_0_0_281
*196 FILLER_0_0_29
*197 FILLER_0_0_293
*198 FILLER_0_0_3
*199 FILLER_0_0_305
*200 FILLER_0_0_309
*201 FILLER_0_0_321
*202 FILLER_0_0_333
*203 FILLER_0_0_337
*204 FILLER_0_0_349
*205 FILLER_0_0_41
*206 FILLER_0_0_53
*207 FILLER_0_0_57
*208 FILLER_0_0_69
*209 FILLER_0_0_81
*210 FILLER_0_0_85
*211 FILLER_0_0_97
*212 FILLER_0_10_109
*213 FILLER_0_10_121
*214 FILLER_0_10_133
*215 FILLER_0_10_139
*216 FILLER_0_10_141
*217 FILLER_0_10_15
*218 FILLER_0_10_153
*219 FILLER_0_10_165
*220 FILLER_0_10_177
*221 FILLER_0_10_189
*222 FILLER_0_10_195
*223 FILLER_0_10_197
*224 FILLER_0_10_209
*225 FILLER_0_10_221
*226 FILLER_0_10_233
*227 FILLER_0_10_245
*228 FILLER_0_10_251
*229 FILLER_0_10_253
*230 FILLER_0_10_265
*231 FILLER_0_10_27
*232 FILLER_0_10_277
*233 FILLER_0_10_289
*234 FILLER_0_10_29
*235 FILLER_0_10_3
*236 FILLER_0_10_301
*237 FILLER_0_10_307
*238 FILLER_0_10_309
*239 FILLER_0_10_321
*240 FILLER_0_10_333
*241 FILLER_0_10_345
*242 FILLER_0_10_41
*243 FILLER_0_10_53
*244 FILLER_0_10_65
*245 FILLER_0_10_77
*246 FILLER_0_10_83
*247 FILLER_0_10_85
*248 FILLER_0_10_97
*249 FILLER_0_11_105
*250 FILLER_0_11_111
*251 FILLER_0_11_113
*252 FILLER_0_11_125
*253 FILLER_0_11_137
*254 FILLER_0_11_149
*255 FILLER_0_11_15
*256 FILLER_0_11_161
*257 FILLER_0_11_167
*258 FILLER_0_11_169
*259 FILLER_0_11_181
*260 FILLER_0_11_193
*261 FILLER_0_11_205
*262 FILLER_0_11_217
*263 FILLER_0_11_223
*264 FILLER_0_11_225
*265 FILLER_0_11_237
*266 FILLER_0_11_249
*267 FILLER_0_11_261
*268 FILLER_0_11_27
*269 FILLER_0_11_273
*270 FILLER_0_11_279
*271 FILLER_0_11_281
*272 FILLER_0_11_293
*273 FILLER_0_11_3
*274 FILLER_0_11_305
*275 FILLER_0_11_317
*276 FILLER_0_11_329
*277 FILLER_0_11_335
*278 FILLER_0_11_337
*279 FILLER_0_11_349
*280 FILLER_0_11_39
*281 FILLER_0_11_51
*282 FILLER_0_11_55
*283 FILLER_0_11_57
*284 FILLER_0_11_69
*285 FILLER_0_11_81
*286 FILLER_0_11_93
*287 FILLER_0_12_109
*288 FILLER_0_12_121
*289 FILLER_0_12_133
*290 FILLER_0_12_139
*291 FILLER_0_12_141
*292 FILLER_0_12_15
*293 FILLER_0_12_153
*294 FILLER_0_12_165
*295 FILLER_0_12_177
*296 FILLER_0_12_189
*297 FILLER_0_12_195
*298 FILLER_0_12_197
*299 FILLER_0_12_209
*300 FILLER_0_12_221
*301 FILLER_0_12_233
*302 FILLER_0_12_245
*303 FILLER_0_12_251
*304 FILLER_0_12_253
*305 FILLER_0_12_265
*306 FILLER_0_12_27
*307 FILLER_0_12_277
*308 FILLER_0_12_289
*309 FILLER_0_12_29
*310 FILLER_0_12_3
*311 FILLER_0_12_301
*312 FILLER_0_12_307
*313 FILLER_0_12_309
*314 FILLER_0_12_321
*315 FILLER_0_12_333
*316 FILLER_0_12_345
*317 FILLER_0_12_41
*318 FILLER_0_12_53
*319 FILLER_0_12_65
*320 FILLER_0_12_77
*321 FILLER_0_12_83
*322 FILLER_0_12_85
*323 FILLER_0_12_97
*324 FILLER_0_13_105
*325 FILLER_0_13_111
*326 FILLER_0_13_113
*327 FILLER_0_13_125
*328 FILLER_0_13_137
*329 FILLER_0_13_149
*330 FILLER_0_13_15
*331 FILLER_0_13_161
*332 FILLER_0_13_167
*333 FILLER_0_13_169
*334 FILLER_0_13_181
*335 FILLER_0_13_193
*336 FILLER_0_13_205
*337 FILLER_0_13_217
*338 FILLER_0_13_223
*339 FILLER_0_13_225
*340 FILLER_0_13_237
*341 FILLER_0_13_249
*342 FILLER_0_13_261
*343 FILLER_0_13_27
*344 FILLER_0_13_273
*345 FILLER_0_13_279
*346 FILLER_0_13_281
*347 FILLER_0_13_293
*348 FILLER_0_13_3
*349 FILLER_0_13_305
*350 FILLER_0_13_317
*351 FILLER_0_13_329
*352 FILLER_0_13_335
*353 FILLER_0_13_337
*354 FILLER_0_13_349
*355 FILLER_0_13_39
*356 FILLER_0_13_51
*357 FILLER_0_13_55
*358 FILLER_0_13_57
*359 FILLER_0_13_69
*360 FILLER_0_13_81
*361 FILLER_0_13_93
*362 FILLER_0_14_109
*363 FILLER_0_14_121
*364 FILLER_0_14_133
*365 FILLER_0_14_139
*366 FILLER_0_14_141
*367 FILLER_0_14_15
*368 FILLER_0_14_153
*369 FILLER_0_14_165
*370 FILLER_0_14_177
*371 FILLER_0_14_189
*372 FILLER_0_14_195
*373 FILLER_0_14_197
*374 FILLER_0_14_209
*375 FILLER_0_14_221
*376 FILLER_0_14_233
*377 FILLER_0_14_245
*378 FILLER_0_14_251
*379 FILLER_0_14_253
*380 FILLER_0_14_265
*381 FILLER_0_14_27
*382 FILLER_0_14_277
*383 FILLER_0_14_289
*384 FILLER_0_14_29
*385 FILLER_0_14_3
*386 FILLER_0_14_301
*387 FILLER_0_14_307
*388 FILLER_0_14_309
*389 FILLER_0_14_321
*390 FILLER_0_14_333
*391 FILLER_0_14_345
*392 FILLER_0_14_41
*393 FILLER_0_14_53
*394 FILLER_0_14_65
*395 FILLER_0_14_77
*396 FILLER_0_14_83
*397 FILLER_0_14_85
*398 FILLER_0_14_97
*399 FILLER_0_15_105
*400 FILLER_0_15_111
*401 FILLER_0_15_113
*402 FILLER_0_15_125
*403 FILLER_0_15_137
*404 FILLER_0_15_149
*405 FILLER_0_15_15
*406 FILLER_0_15_161
*407 FILLER_0_15_167
*408 FILLER_0_15_169
*409 FILLER_0_15_181
*410 FILLER_0_15_193
*411 FILLER_0_15_205
*412 FILLER_0_15_217
*413 FILLER_0_15_223
*414 FILLER_0_15_225
*415 FILLER_0_15_237
*416 FILLER_0_15_249
*417 FILLER_0_15_261
*418 FILLER_0_15_27
*419 FILLER_0_15_273
*420 FILLER_0_15_279
*421 FILLER_0_15_281
*422 FILLER_0_15_293
*423 FILLER_0_15_3
*424 FILLER_0_15_305
*425 FILLER_0_15_317
*426 FILLER_0_15_329
*427 FILLER_0_15_335
*428 FILLER_0_15_337
*429 FILLER_0_15_349
*430 FILLER_0_15_39
*431 FILLER_0_15_51
*432 FILLER_0_15_55
*433 FILLER_0_15_57
*434 FILLER_0_15_69
*435 FILLER_0_15_81
*436 FILLER_0_15_93
*437 FILLER_0_16_109
*438 FILLER_0_16_121
*439 FILLER_0_16_133
*440 FILLER_0_16_139
*441 FILLER_0_16_141
*442 FILLER_0_16_15
*443 FILLER_0_16_153
*444 FILLER_0_16_165
*445 FILLER_0_16_177
*446 FILLER_0_16_189
*447 FILLER_0_16_195
*448 FILLER_0_16_197
*449 FILLER_0_16_209
*450 FILLER_0_16_221
*451 FILLER_0_16_233
*452 FILLER_0_16_245
*453 FILLER_0_16_251
*454 FILLER_0_16_253
*455 FILLER_0_16_265
*456 FILLER_0_16_27
*457 FILLER_0_16_277
*458 FILLER_0_16_289
*459 FILLER_0_16_29
*460 FILLER_0_16_3
*461 FILLER_0_16_301
*462 FILLER_0_16_307
*463 FILLER_0_16_309
*464 FILLER_0_16_321
*465 FILLER_0_16_333
*466 FILLER_0_16_345
*467 FILLER_0_16_41
*468 FILLER_0_16_53
*469 FILLER_0_16_65
*470 FILLER_0_16_77
*471 FILLER_0_16_83
*472 FILLER_0_16_85
*473 FILLER_0_16_97
*474 FILLER_0_17_105
*475 FILLER_0_17_111
*476 FILLER_0_17_113
*477 FILLER_0_17_125
*478 FILLER_0_17_137
*479 FILLER_0_17_149
*480 FILLER_0_17_15
*481 FILLER_0_17_161
*482 FILLER_0_17_167
*483 FILLER_0_17_169
*484 FILLER_0_17_181
*485 FILLER_0_17_193
*486 FILLER_0_17_205
*487 FILLER_0_17_217
*488 FILLER_0_17_223
*489 FILLER_0_17_225
*490 FILLER_0_17_237
*491 FILLER_0_17_249
*492 FILLER_0_17_261
*493 FILLER_0_17_27
*494 FILLER_0_17_273
*495 FILLER_0_17_279
*496 FILLER_0_17_281
*497 FILLER_0_17_293
*498 FILLER_0_17_3
*499 FILLER_0_17_305
*500 FILLER_0_17_317
*501 FILLER_0_17_329
*502 FILLER_0_17_335
*503 FILLER_0_17_337
*504 FILLER_0_17_349
*505 FILLER_0_17_39
*506 FILLER_0_17_51
*507 FILLER_0_17_55
*508 FILLER_0_17_57
*509 FILLER_0_17_69
*510 FILLER_0_17_81
*511 FILLER_0_17_93
*512 FILLER_0_18_109
*513 FILLER_0_18_121
*514 FILLER_0_18_133
*515 FILLER_0_18_139
*516 FILLER_0_18_141
*517 FILLER_0_18_15
*518 FILLER_0_18_153
*519 FILLER_0_18_165
*520 FILLER_0_18_177
*521 FILLER_0_18_189
*522 FILLER_0_18_195
*523 FILLER_0_18_197
*524 FILLER_0_18_209
*525 FILLER_0_18_221
*526 FILLER_0_18_233
*527 FILLER_0_18_245
*528 FILLER_0_18_251
*529 FILLER_0_18_253
*530 FILLER_0_18_265
*531 FILLER_0_18_27
*532 FILLER_0_18_277
*533 FILLER_0_18_289
*534 FILLER_0_18_29
*535 FILLER_0_18_3
*536 FILLER_0_18_301
*537 FILLER_0_18_307
*538 FILLER_0_18_309
*539 FILLER_0_18_321
*540 FILLER_0_18_333
*541 FILLER_0_18_345
*542 FILLER_0_18_41
*543 FILLER_0_18_53
*544 FILLER_0_18_65
*545 FILLER_0_18_77
*546 FILLER_0_18_83
*547 FILLER_0_18_85
*548 FILLER_0_18_97
*549 FILLER_0_19_105
*550 FILLER_0_19_111
*551 FILLER_0_19_113
*552 FILLER_0_19_125
*553 FILLER_0_19_137
*554 FILLER_0_19_149
*555 FILLER_0_19_15
*556 FILLER_0_19_161
*557 FILLER_0_19_167
*558 FILLER_0_19_169
*559 FILLER_0_19_181
*560 FILLER_0_19_193
*561 FILLER_0_19_205
*562 FILLER_0_19_217
*563 FILLER_0_19_223
*564 FILLER_0_19_225
*565 FILLER_0_19_237
*566 FILLER_0_19_249
*567 FILLER_0_19_261
*568 FILLER_0_19_27
*569 FILLER_0_19_273
*570 FILLER_0_19_279
*571 FILLER_0_19_281
*572 FILLER_0_19_293
*573 FILLER_0_19_3
*574 FILLER_0_19_305
*575 FILLER_0_19_317
*576 FILLER_0_19_329
*577 FILLER_0_19_335
*578 FILLER_0_19_337
*579 FILLER_0_19_349
*580 FILLER_0_19_39
*581 FILLER_0_19_51
*582 FILLER_0_19_55
*583 FILLER_0_19_57
*584 FILLER_0_19_69
*585 FILLER_0_19_81
*586 FILLER_0_19_93
*587 FILLER_0_1_105
*588 FILLER_0_1_111
*589 FILLER_0_1_113
*590 FILLER_0_1_125
*591 FILLER_0_1_137
*592 FILLER_0_1_149
*593 FILLER_0_1_15
*594 FILLER_0_1_161
*595 FILLER_0_1_167
*596 FILLER_0_1_169
*597 FILLER_0_1_181
*598 FILLER_0_1_193
*599 FILLER_0_1_205
*600 FILLER_0_1_217
*601 FILLER_0_1_223
*602 FILLER_0_1_225
*603 FILLER_0_1_237
*604 FILLER_0_1_249
*605 FILLER_0_1_261
*606 FILLER_0_1_27
*607 FILLER_0_1_273
*608 FILLER_0_1_279
*609 FILLER_0_1_281
*610 FILLER_0_1_293
*611 FILLER_0_1_3
*612 FILLER_0_1_305
*613 FILLER_0_1_317
*614 FILLER_0_1_329
*615 FILLER_0_1_335
*616 FILLER_0_1_337
*617 FILLER_0_1_349
*618 FILLER_0_1_39
*619 FILLER_0_1_51
*620 FILLER_0_1_55
*621 FILLER_0_1_57
*622 FILLER_0_1_69
*623 FILLER_0_1_81
*624 FILLER_0_1_93
*625 FILLER_0_20_109
*626 FILLER_0_20_121
*627 FILLER_0_20_133
*628 FILLER_0_20_139
*629 FILLER_0_20_141
*630 FILLER_0_20_15
*631 FILLER_0_20_153
*632 FILLER_0_20_165
*633 FILLER_0_20_177
*634 FILLER_0_20_189
*635 FILLER_0_20_195
*636 FILLER_0_20_197
*637 FILLER_0_20_209
*638 FILLER_0_20_221
*639 FILLER_0_20_233
*640 FILLER_0_20_245
*641 FILLER_0_20_251
*642 FILLER_0_20_253
*643 FILLER_0_20_265
*644 FILLER_0_20_27
*645 FILLER_0_20_277
*646 FILLER_0_20_289
*647 FILLER_0_20_29
*648 FILLER_0_20_3
*649 FILLER_0_20_301
*650 FILLER_0_20_307
*651 FILLER_0_20_309
*652 FILLER_0_20_321
*653 FILLER_0_20_333
*654 FILLER_0_20_345
*655 FILLER_0_20_41
*656 FILLER_0_20_53
*657 FILLER_0_20_65
*658 FILLER_0_20_77
*659 FILLER_0_20_83
*660 FILLER_0_20_85
*661 FILLER_0_20_97
*662 FILLER_0_21_105
*663 FILLER_0_21_111
*664 FILLER_0_21_113
*665 FILLER_0_21_125
*666 FILLER_0_21_137
*667 FILLER_0_21_149
*668 FILLER_0_21_15
*669 FILLER_0_21_161
*670 FILLER_0_21_167
*671 FILLER_0_21_169
*672 FILLER_0_21_181
*673 FILLER_0_21_193
*674 FILLER_0_21_205
*675 FILLER_0_21_217
*676 FILLER_0_21_223
*677 FILLER_0_21_225
*678 FILLER_0_21_237
*679 FILLER_0_21_249
*680 FILLER_0_21_261
*681 FILLER_0_21_27
*682 FILLER_0_21_273
*683 FILLER_0_21_279
*684 FILLER_0_21_281
*685 FILLER_0_21_293
*686 FILLER_0_21_3
*687 FILLER_0_21_305
*688 FILLER_0_21_317
*689 FILLER_0_21_329
*690 FILLER_0_21_335
*691 FILLER_0_21_337
*692 FILLER_0_21_349
*693 FILLER_0_21_39
*694 FILLER_0_21_51
*695 FILLER_0_21_55
*696 FILLER_0_21_57
*697 FILLER_0_21_69
*698 FILLER_0_21_81
*699 FILLER_0_21_93
*700 FILLER_0_22_109
*701 FILLER_0_22_121
*702 FILLER_0_22_133
*703 FILLER_0_22_139
*704 FILLER_0_22_141
*705 FILLER_0_22_15
*706 FILLER_0_22_153
*707 FILLER_0_22_165
*708 FILLER_0_22_177
*709 FILLER_0_22_189
*710 FILLER_0_22_195
*711 FILLER_0_22_197
*712 FILLER_0_22_209
*713 FILLER_0_22_221
*714 FILLER_0_22_233
*715 FILLER_0_22_245
*716 FILLER_0_22_251
*717 FILLER_0_22_253
*718 FILLER_0_22_265
*719 FILLER_0_22_27
*720 FILLER_0_22_277
*721 FILLER_0_22_289
*722 FILLER_0_22_29
*723 FILLER_0_22_3
*724 FILLER_0_22_301
*725 FILLER_0_22_307
*726 FILLER_0_22_309
*727 FILLER_0_22_321
*728 FILLER_0_22_333
*729 FILLER_0_22_345
*730 FILLER_0_22_41
*731 FILLER_0_22_53
*732 FILLER_0_22_65
*733 FILLER_0_22_77
*734 FILLER_0_22_83
*735 FILLER_0_22_85
*736 FILLER_0_22_97
*737 FILLER_0_23_105
*738 FILLER_0_23_111
*739 FILLER_0_23_113
*740 FILLER_0_23_125
*741 FILLER_0_23_137
*742 FILLER_0_23_149
*743 FILLER_0_23_15
*744 FILLER_0_23_161
*745 FILLER_0_23_167
*746 FILLER_0_23_169
*747 FILLER_0_23_181
*748 FILLER_0_23_193
*749 FILLER_0_23_205
*750 FILLER_0_23_217
*751 FILLER_0_23_223
*752 FILLER_0_23_225
*753 FILLER_0_23_237
*754 FILLER_0_23_249
*755 FILLER_0_23_261
*756 FILLER_0_23_27
*757 FILLER_0_23_273
*758 FILLER_0_23_279
*759 FILLER_0_23_281
*760 FILLER_0_23_293
*761 FILLER_0_23_3
*762 FILLER_0_23_305
*763 FILLER_0_23_317
*764 FILLER_0_23_329
*765 FILLER_0_23_335
*766 FILLER_0_23_337
*767 FILLER_0_23_349
*768 FILLER_0_23_39
*769 FILLER_0_23_51
*770 FILLER_0_23_55
*771 FILLER_0_23_57
*772 FILLER_0_23_69
*773 FILLER_0_23_81
*774 FILLER_0_23_93
*775 FILLER_0_24_109
*776 FILLER_0_24_121
*777 FILLER_0_24_133
*778 FILLER_0_24_139
*779 FILLER_0_24_141
*780 FILLER_0_24_15
*781 FILLER_0_24_153
*782 FILLER_0_24_165
*783 FILLER_0_24_177
*784 FILLER_0_24_189
*785 FILLER_0_24_195
*786 FILLER_0_24_197
*787 FILLER_0_24_209
*788 FILLER_0_24_221
*789 FILLER_0_24_233
*790 FILLER_0_24_245
*791 FILLER_0_24_251
*792 FILLER_0_24_253
*793 FILLER_0_24_265
*794 FILLER_0_24_27
*795 FILLER_0_24_277
*796 FILLER_0_24_289
*797 FILLER_0_24_29
*798 FILLER_0_24_3
*799 FILLER_0_24_301
*800 FILLER_0_24_307
*801 FILLER_0_24_309
*802 FILLER_0_24_321
*803 FILLER_0_24_333
*804 FILLER_0_24_345
*805 FILLER_0_24_41
*806 FILLER_0_24_53
*807 FILLER_0_24_65
*808 FILLER_0_24_77
*809 FILLER_0_24_83
*810 FILLER_0_24_85
*811 FILLER_0_24_97
*812 FILLER_0_25_105
*813 FILLER_0_25_111
*814 FILLER_0_25_113
*815 FILLER_0_25_125
*816 FILLER_0_25_137
*817 FILLER_0_25_149
*818 FILLER_0_25_15
*819 FILLER_0_25_161
*820 FILLER_0_25_167
*821 FILLER_0_25_169
*822 FILLER_0_25_181
*823 FILLER_0_25_193
*824 FILLER_0_25_205
*825 FILLER_0_25_217
*826 FILLER_0_25_223
*827 FILLER_0_25_225
*828 FILLER_0_25_237
*829 FILLER_0_25_249
*830 FILLER_0_25_261
*831 FILLER_0_25_27
*832 FILLER_0_25_273
*833 FILLER_0_25_279
*834 FILLER_0_25_281
*835 FILLER_0_25_293
*836 FILLER_0_25_3
*837 FILLER_0_25_305
*838 FILLER_0_25_317
*839 FILLER_0_25_329
*840 FILLER_0_25_335
*841 FILLER_0_25_337
*842 FILLER_0_25_349
*843 FILLER_0_25_39
*844 FILLER_0_25_51
*845 FILLER_0_25_55
*846 FILLER_0_25_57
*847 FILLER_0_25_69
*848 FILLER_0_25_81
*849 FILLER_0_25_93
*850 FILLER_0_26_109
*851 FILLER_0_26_121
*852 FILLER_0_26_133
*853 FILLER_0_26_139
*854 FILLER_0_26_141
*855 FILLER_0_26_15
*856 FILLER_0_26_153
*857 FILLER_0_26_165
*858 FILLER_0_26_177
*859 FILLER_0_26_189
*860 FILLER_0_26_195
*861 FILLER_0_26_197
*862 FILLER_0_26_209
*863 FILLER_0_26_221
*864 FILLER_0_26_233
*865 FILLER_0_26_245
*866 FILLER_0_26_251
*867 FILLER_0_26_253
*868 FILLER_0_26_265
*869 FILLER_0_26_27
*870 FILLER_0_26_277
*871 FILLER_0_26_289
*872 FILLER_0_26_29
*873 FILLER_0_26_3
*874 FILLER_0_26_301
*875 FILLER_0_26_307
*876 FILLER_0_26_309
*877 FILLER_0_26_321
*878 FILLER_0_26_333
*879 FILLER_0_26_345
*880 FILLER_0_26_41
*881 FILLER_0_26_53
*882 FILLER_0_26_65
*883 FILLER_0_26_77
*884 FILLER_0_26_83
*885 FILLER_0_26_85
*886 FILLER_0_26_97
*887 FILLER_0_27_105
*888 FILLER_0_27_111
*889 FILLER_0_27_113
*890 FILLER_0_27_125
*891 FILLER_0_27_137
*892 FILLER_0_27_149
*893 FILLER_0_27_15
*894 FILLER_0_27_161
*895 FILLER_0_27_167
*896 FILLER_0_27_169
*897 FILLER_0_27_181
*898 FILLER_0_27_193
*899 FILLER_0_27_205
*900 FILLER_0_27_217
*901 FILLER_0_27_223
*902 FILLER_0_27_225
*903 FILLER_0_27_237
*904 FILLER_0_27_249
*905 FILLER_0_27_261
*906 FILLER_0_27_27
*907 FILLER_0_27_273
*908 FILLER_0_27_279
*909 FILLER_0_27_281
*910 FILLER_0_27_293
*911 FILLER_0_27_3
*912 FILLER_0_27_305
*913 FILLER_0_27_317
*914 FILLER_0_27_329
*915 FILLER_0_27_335
*916 FILLER_0_27_337
*917 FILLER_0_27_349
*918 FILLER_0_27_39
*919 FILLER_0_27_51
*920 FILLER_0_27_55
*921 FILLER_0_27_57
*922 FILLER_0_27_69
*923 FILLER_0_27_81
*924 FILLER_0_27_93
*925 FILLER_0_28_109
*926 FILLER_0_28_121
*927 FILLER_0_28_133
*928 FILLER_0_28_139
*929 FILLER_0_28_141
*930 FILLER_0_28_15
*931 FILLER_0_28_153
*932 FILLER_0_28_165
*933 FILLER_0_28_177
*934 FILLER_0_28_189
*935 FILLER_0_28_195
*936 FILLER_0_28_197
*937 FILLER_0_28_209
*938 FILLER_0_28_221
*939 FILLER_0_28_233
*940 FILLER_0_28_245
*941 FILLER_0_28_251
*942 FILLER_0_28_27
*943 FILLER_0_28_273
*944 FILLER_0_28_285
*945 FILLER_0_28_29
*946 FILLER_0_28_297
*947 FILLER_0_28_3
*948 FILLER_0_28_305
*949 FILLER_0_28_329
*950 FILLER_0_28_341
*951 FILLER_0_28_349
*952 FILLER_0_28_41
*953 FILLER_0_28_53
*954 FILLER_0_28_65
*955 FILLER_0_28_77
*956 FILLER_0_28_83
*957 FILLER_0_28_85
*958 FILLER_0_28_97
*959 FILLER_0_29_105
*960 FILLER_0_29_111
*961 FILLER_0_29_113
*962 FILLER_0_29_125
*963 FILLER_0_29_137
*964 FILLER_0_29_149
*965 FILLER_0_29_15
*966 FILLER_0_29_161
*967 FILLER_0_29_167
*968 FILLER_0_29_169
*969 FILLER_0_29_181
*970 FILLER_0_29_193
*971 FILLER_0_29_205
*972 FILLER_0_29_217
*973 FILLER_0_29_223
*974 FILLER_0_29_225
*975 FILLER_0_29_237
*976 FILLER_0_29_249
*977 FILLER_0_29_257
*978 FILLER_0_29_265
*979 FILLER_0_29_27
*980 FILLER_0_29_277
*981 FILLER_0_29_281
*982 FILLER_0_29_285
*983 FILLER_0_29_3
*984 FILLER_0_29_305
*985 FILLER_0_29_309
*986 FILLER_0_29_329
*987 FILLER_0_29_335
*988 FILLER_0_29_337
*989 FILLER_0_29_344
*990 FILLER_0_29_350
*991 FILLER_0_29_39
*992 FILLER_0_29_51
*993 FILLER_0_29_55
*994 FILLER_0_29_57
*995 FILLER_0_29_69
*996 FILLER_0_29_81
*997 FILLER_0_29_93
*998 FILLER_0_2_109
*999 FILLER_0_2_121
*1000 FILLER_0_2_133
*1001 FILLER_0_2_139
*1002 FILLER_0_2_141
*1003 FILLER_0_2_15
*1004 FILLER_0_2_153
*1005 FILLER_0_2_165
*1006 FILLER_0_2_177
*1007 FILLER_0_2_189
*1008 FILLER_0_2_195
*1009 FILLER_0_2_197
*1010 FILLER_0_2_209
*1011 FILLER_0_2_221
*1012 FILLER_0_2_233
*1013 FILLER_0_2_245
*1014 FILLER_0_2_251
*1015 FILLER_0_2_253
*1016 FILLER_0_2_265
*1017 FILLER_0_2_27
*1018 FILLER_0_2_277
*1019 FILLER_0_2_289
*1020 FILLER_0_2_29
*1021 FILLER_0_2_3
*1022 FILLER_0_2_301
*1023 FILLER_0_2_307
*1024 FILLER_0_2_309
*1025 FILLER_0_2_321
*1026 FILLER_0_2_333
*1027 FILLER_0_2_345
*1028 FILLER_0_2_41
*1029 FILLER_0_2_53
*1030 FILLER_0_2_65
*1031 FILLER_0_2_77
*1032 FILLER_0_2_83
*1033 FILLER_0_2_85
*1034 FILLER_0_2_97
*1035 FILLER_0_30_109
*1036 FILLER_0_30_121
*1037 FILLER_0_30_133
*1038 FILLER_0_30_139
*1039 FILLER_0_30_141
*1040 FILLER_0_30_15
*1041 FILLER_0_30_153
*1042 FILLER_0_30_165
*1043 FILLER_0_30_177
*1044 FILLER_0_30_189
*1045 FILLER_0_30_195
*1046 FILLER_0_30_197
*1047 FILLER_0_30_209
*1048 FILLER_0_30_221
*1049 FILLER_0_30_233
*1050 FILLER_0_30_245
*1051 FILLER_0_30_251
*1052 FILLER_0_30_27
*1053 FILLER_0_30_272
*1054 FILLER_0_30_29
*1055 FILLER_0_30_294
*1056 FILLER_0_30_3
*1057 FILLER_0_30_300
*1058 FILLER_0_30_309
*1059 FILLER_0_30_317
*1060 FILLER_0_30_329
*1061 FILLER_0_30_41
*1062 FILLER_0_30_53
*1063 FILLER_0_30_65
*1064 FILLER_0_30_77
*1065 FILLER_0_30_83
*1066 FILLER_0_30_85
*1067 FILLER_0_30_97
*1068 FILLER_0_31_105
*1069 FILLER_0_31_111
*1070 FILLER_0_31_113
*1071 FILLER_0_31_125
*1072 FILLER_0_31_137
*1073 FILLER_0_31_149
*1074 FILLER_0_31_15
*1075 FILLER_0_31_161
*1076 FILLER_0_31_167
*1077 FILLER_0_31_169
*1078 FILLER_0_31_177
*1079 FILLER_0_31_197
*1080 FILLER_0_31_205
*1081 FILLER_0_31_210
*1082 FILLER_0_31_222
*1083 FILLER_0_31_225
*1084 FILLER_0_31_236
*1085 FILLER_0_31_248
*1086 FILLER_0_31_256
*1087 FILLER_0_31_27
*1088 FILLER_0_31_271
*1089 FILLER_0_31_279
*1090 FILLER_0_31_281
*1091 FILLER_0_31_3
*1092 FILLER_0_31_327
*1093 FILLER_0_31_350
*1094 FILLER_0_31_39
*1095 FILLER_0_31_51
*1096 FILLER_0_31_55
*1097 FILLER_0_31_57
*1098 FILLER_0_31_69
*1099 FILLER_0_31_81
*1100 FILLER_0_31_93
*1101 FILLER_0_32_109
*1102 FILLER_0_32_121
*1103 FILLER_0_32_133
*1104 FILLER_0_32_139
*1105 FILLER_0_32_141
*1106 FILLER_0_32_15
*1107 FILLER_0_32_153
*1108 FILLER_0_32_176
*1109 FILLER_0_32_185
*1110 FILLER_0_32_193
*1111 FILLER_0_32_197
*1112 FILLER_0_32_222
*1113 FILLER_0_32_250
*1114 FILLER_0_32_27
*1115 FILLER_0_32_274
*1116 FILLER_0_32_29
*1117 FILLER_0_32_3
*1118 FILLER_0_32_302
*1119 FILLER_0_32_309
*1120 FILLER_0_32_326
*1121 FILLER_0_32_41
*1122 FILLER_0_32_53
*1123 FILLER_0_32_65
*1124 FILLER_0_32_77
*1125 FILLER_0_32_83
*1126 FILLER_0_32_85
*1127 FILLER_0_32_97
*1128 FILLER_0_33_105
*1129 FILLER_0_33_111
*1130 FILLER_0_33_113
*1131 FILLER_0_33_125
*1132 FILLER_0_33_137
*1133 FILLER_0_33_149
*1134 FILLER_0_33_15
*1135 FILLER_0_33_169
*1136 FILLER_0_33_177
*1137 FILLER_0_33_196
*1138 FILLER_0_33_205
*1139 FILLER_0_33_217
*1140 FILLER_0_33_223
*1141 FILLER_0_33_225
*1142 FILLER_0_33_232
*1143 FILLER_0_33_238
*1144 FILLER_0_33_250
*1145 FILLER_0_33_266
*1146 FILLER_0_33_27
*1147 FILLER_0_33_278
*1148 FILLER_0_33_281
*1149 FILLER_0_33_286
*1150 FILLER_0_33_294
*1151 FILLER_0_33_3
*1152 FILLER_0_33_335
*1153 FILLER_0_33_348
*1154 FILLER_0_33_39
*1155 FILLER_0_33_51
*1156 FILLER_0_33_55
*1157 FILLER_0_33_57
*1158 FILLER_0_33_69
*1159 FILLER_0_33_81
*1160 FILLER_0_33_93
*1161 FILLER_0_34_109
*1162 FILLER_0_34_121
*1163 FILLER_0_34_133
*1164 FILLER_0_34_139
*1165 FILLER_0_34_141
*1166 FILLER_0_34_15
*1167 FILLER_0_34_153
*1168 FILLER_0_34_180
*1169 FILLER_0_34_192
*1170 FILLER_0_34_235
*1171 FILLER_0_34_243
*1172 FILLER_0_34_248
*1173 FILLER_0_34_27
*1174 FILLER_0_34_29
*1175 FILLER_0_34_295
*1176 FILLER_0_34_3
*1177 FILLER_0_34_307
*1178 FILLER_0_34_312
*1179 FILLER_0_34_324
*1180 FILLER_0_34_332
*1181 FILLER_0_34_349
*1182 FILLER_0_34_41
*1183 FILLER_0_34_53
*1184 FILLER_0_34_65
*1185 FILLER_0_34_77
*1186 FILLER_0_34_83
*1187 FILLER_0_34_85
*1188 FILLER_0_34_97
*1189 FILLER_0_35_105
*1190 FILLER_0_35_111
*1191 FILLER_0_35_113
*1192 FILLER_0_35_125
*1193 FILLER_0_35_137
*1194 FILLER_0_35_149
*1195 FILLER_0_35_15
*1196 FILLER_0_35_161
*1197 FILLER_0_35_167
*1198 FILLER_0_35_169
*1199 FILLER_0_35_181
*1200 FILLER_0_35_185
*1201 FILLER_0_35_200
*1202 FILLER_0_35_218
*1203 FILLER_0_35_232
*1204 FILLER_0_35_244
*1205 FILLER_0_35_256
*1206 FILLER_0_35_268
*1207 FILLER_0_35_27
*1208 FILLER_0_35_281
*1209 FILLER_0_35_287
*1210 FILLER_0_35_295
*1211 FILLER_0_35_3
*1212 FILLER_0_35_319
*1213 FILLER_0_35_335
*1214 FILLER_0_35_337
*1215 FILLER_0_35_349
*1216 FILLER_0_35_39
*1217 FILLER_0_35_51
*1218 FILLER_0_35_55
*1219 FILLER_0_35_57
*1220 FILLER_0_35_69
*1221 FILLER_0_35_81
*1222 FILLER_0_35_93
*1223 FILLER_0_36_109
*1224 FILLER_0_36_121
*1225 FILLER_0_36_133
*1226 FILLER_0_36_139
*1227 FILLER_0_36_141
*1228 FILLER_0_36_15
*1229 FILLER_0_36_153
*1230 FILLER_0_36_165
*1231 FILLER_0_36_177
*1232 FILLER_0_36_185
*1233 FILLER_0_36_192
*1234 FILLER_0_36_197
*1235 FILLER_0_36_203
*1236 FILLER_0_36_207
*1237 FILLER_0_36_215
*1238 FILLER_0_36_226
*1239 FILLER_0_36_230
*1240 FILLER_0_36_246
*1241 FILLER_0_36_27
*1242 FILLER_0_36_29
*1243 FILLER_0_36_299
*1244 FILLER_0_36_3
*1245 FILLER_0_36_307
*1246 FILLER_0_36_309
*1247 FILLER_0_36_315
*1248 FILLER_0_36_320
*1249 FILLER_0_36_326
*1250 FILLER_0_36_334
*1251 FILLER_0_36_41
*1252 FILLER_0_36_53
*1253 FILLER_0_36_65
*1254 FILLER_0_36_77
*1255 FILLER_0_36_83
*1256 FILLER_0_36_85
*1257 FILLER_0_36_97
*1258 FILLER_0_37_105
*1259 FILLER_0_37_111
*1260 FILLER_0_37_113
*1261 FILLER_0_37_125
*1262 FILLER_0_37_137
*1263 FILLER_0_37_149
*1264 FILLER_0_37_15
*1265 FILLER_0_37_161
*1266 FILLER_0_37_167
*1267 FILLER_0_37_169
*1268 FILLER_0_37_177
*1269 FILLER_0_37_190
*1270 FILLER_0_37_198
*1271 FILLER_0_37_215
*1272 FILLER_0_37_223
*1273 FILLER_0_37_225
*1274 FILLER_0_37_237
*1275 FILLER_0_37_264
*1276 FILLER_0_37_27
*1277 FILLER_0_37_276
*1278 FILLER_0_37_281
*1279 FILLER_0_37_296
*1280 FILLER_0_37_3
*1281 FILLER_0_37_325
*1282 FILLER_0_37_334
*1283 FILLER_0_37_346
*1284 FILLER_0_37_350
*1285 FILLER_0_37_39
*1286 FILLER_0_37_51
*1287 FILLER_0_37_55
*1288 FILLER_0_37_57
*1289 FILLER_0_37_69
*1290 FILLER_0_37_81
*1291 FILLER_0_37_93
*1292 FILLER_0_38_102
*1293 FILLER_0_38_106
*1294 FILLER_0_38_110
*1295 FILLER_0_38_113
*1296 FILLER_0_38_125
*1297 FILLER_0_38_137
*1298 FILLER_0_38_14
*1299 FILLER_0_38_153
*1300 FILLER_0_38_158
*1301 FILLER_0_38_162
*1302 FILLER_0_38_166
*1303 FILLER_0_38_18
*1304 FILLER_0_38_186
*1305 FILLER_0_38_192
*1306 FILLER_0_38_197
*1307 FILLER_0_38_209
*1308 FILLER_0_38_22
*1309 FILLER_0_38_221
*1310 FILLER_0_38_245
*1311 FILLER_0_38_251
*1312 FILLER_0_38_259
*1313 FILLER_0_38_263
*1314 FILLER_0_38_281
*1315 FILLER_0_38_287
*1316 FILLER_0_38_291
*1317 FILLER_0_38_3
*1318 FILLER_0_38_303
*1319 FILLER_0_38_307
*1320 FILLER_0_38_309
*1321 FILLER_0_38_32
*1322 FILLER_0_38_321
*1323 FILLER_0_38_327
*1324 FILLER_0_38_335
*1325 FILLER_0_38_341
*1326 FILLER_0_38_349
*1327 FILLER_0_38_38
*1328 FILLER_0_38_42
*1329 FILLER_0_38_46
*1330 FILLER_0_38_50
*1331 FILLER_0_38_54
*1332 FILLER_0_38_57
*1333 FILLER_0_38_62
*1334 FILLER_0_38_66
*1335 FILLER_0_38_70
*1336 FILLER_0_38_74
*1337 FILLER_0_38_78
*1338 FILLER_0_38_88
*1339 FILLER_0_38_94
*1340 FILLER_0_38_98
*1341 FILLER_0_3_105
*1342 FILLER_0_3_111
*1343 FILLER_0_3_113
*1344 FILLER_0_3_125
*1345 FILLER_0_3_137
*1346 FILLER_0_3_149
*1347 FILLER_0_3_15
*1348 FILLER_0_3_161
*1349 FILLER_0_3_167
*1350 FILLER_0_3_169
*1351 FILLER_0_3_181
*1352 FILLER_0_3_193
*1353 FILLER_0_3_205
*1354 FILLER_0_3_217
*1355 FILLER_0_3_223
*1356 FILLER_0_3_225
*1357 FILLER_0_3_237
*1358 FILLER_0_3_249
*1359 FILLER_0_3_261
*1360 FILLER_0_3_27
*1361 FILLER_0_3_273
*1362 FILLER_0_3_279
*1363 FILLER_0_3_281
*1364 FILLER_0_3_293
*1365 FILLER_0_3_3
*1366 FILLER_0_3_305
*1367 FILLER_0_3_317
*1368 FILLER_0_3_329
*1369 FILLER_0_3_335
*1370 FILLER_0_3_337
*1371 FILLER_0_3_349
*1372 FILLER_0_3_39
*1373 FILLER_0_3_51
*1374 FILLER_0_3_55
*1375 FILLER_0_3_57
*1376 FILLER_0_3_69
*1377 FILLER_0_3_81
*1378 FILLER_0_3_93
*1379 FILLER_0_4_109
*1380 FILLER_0_4_121
*1381 FILLER_0_4_133
*1382 FILLER_0_4_139
*1383 FILLER_0_4_141
*1384 FILLER_0_4_15
*1385 FILLER_0_4_153
*1386 FILLER_0_4_165
*1387 FILLER_0_4_177
*1388 FILLER_0_4_189
*1389 FILLER_0_4_195
*1390 FILLER_0_4_197
*1391 FILLER_0_4_209
*1392 FILLER_0_4_221
*1393 FILLER_0_4_233
*1394 FILLER_0_4_245
*1395 FILLER_0_4_251
*1396 FILLER_0_4_253
*1397 FILLER_0_4_265
*1398 FILLER_0_4_27
*1399 FILLER_0_4_277
*1400 FILLER_0_4_289
*1401 FILLER_0_4_29
*1402 FILLER_0_4_3
*1403 FILLER_0_4_301
*1404 FILLER_0_4_307
*1405 FILLER_0_4_309
*1406 FILLER_0_4_321
*1407 FILLER_0_4_333
*1408 FILLER_0_4_345
*1409 FILLER_0_4_41
*1410 FILLER_0_4_53
*1411 FILLER_0_4_65
*1412 FILLER_0_4_77
*1413 FILLER_0_4_83
*1414 FILLER_0_4_85
*1415 FILLER_0_4_97
*1416 FILLER_0_5_105
*1417 FILLER_0_5_111
*1418 FILLER_0_5_113
*1419 FILLER_0_5_125
*1420 FILLER_0_5_137
*1421 FILLER_0_5_149
*1422 FILLER_0_5_15
*1423 FILLER_0_5_161
*1424 FILLER_0_5_167
*1425 FILLER_0_5_169
*1426 FILLER_0_5_181
*1427 FILLER_0_5_193
*1428 FILLER_0_5_205
*1429 FILLER_0_5_217
*1430 FILLER_0_5_223
*1431 FILLER_0_5_225
*1432 FILLER_0_5_237
*1433 FILLER_0_5_249
*1434 FILLER_0_5_261
*1435 FILLER_0_5_27
*1436 FILLER_0_5_273
*1437 FILLER_0_5_279
*1438 FILLER_0_5_281
*1439 FILLER_0_5_293
*1440 FILLER_0_5_3
*1441 FILLER_0_5_305
*1442 FILLER_0_5_317
*1443 FILLER_0_5_329
*1444 FILLER_0_5_335
*1445 FILLER_0_5_337
*1446 FILLER_0_5_349
*1447 FILLER_0_5_39
*1448 FILLER_0_5_51
*1449 FILLER_0_5_55
*1450 FILLER_0_5_57
*1451 FILLER_0_5_69
*1452 FILLER_0_5_81
*1453 FILLER_0_5_93
*1454 FILLER_0_6_109
*1455 FILLER_0_6_121
*1456 FILLER_0_6_133
*1457 FILLER_0_6_139
*1458 FILLER_0_6_141
*1459 FILLER_0_6_15
*1460 FILLER_0_6_153
*1461 FILLER_0_6_165
*1462 FILLER_0_6_177
*1463 FILLER_0_6_189
*1464 FILLER_0_6_195
*1465 FILLER_0_6_197
*1466 FILLER_0_6_209
*1467 FILLER_0_6_221
*1468 FILLER_0_6_233
*1469 FILLER_0_6_245
*1470 FILLER_0_6_251
*1471 FILLER_0_6_253
*1472 FILLER_0_6_265
*1473 FILLER_0_6_27
*1474 FILLER_0_6_277
*1475 FILLER_0_6_289
*1476 FILLER_0_6_29
*1477 FILLER_0_6_3
*1478 FILLER_0_6_301
*1479 FILLER_0_6_307
*1480 FILLER_0_6_309
*1481 FILLER_0_6_321
*1482 FILLER_0_6_333
*1483 FILLER_0_6_345
*1484 FILLER_0_6_41
*1485 FILLER_0_6_53
*1486 FILLER_0_6_65
*1487 FILLER_0_6_77
*1488 FILLER_0_6_83