*SPEF "ieee 1481-1999"
*DESIGN "tt_um_biased_trng"
*DATE "11:11:11 Fri 11 11, 1111"
*VENDOR "OpenRCX"
*PROGRAM "Parallel Extraction"
*VERSION "1.0"
*DESIGN_FLOW "NAME_SCOPE LOCAL" "PIN_CAP NONE"
*DIVIDER /
*DELIMITER :
*BUS_DELIMITER []
*T_UNIT 1 NS
*C_UNIT 1 PF
*R_UNIT 1 OHM
*L_UNIT 1 HENRY

*NAME_MAP
*3 clk
*4 ena
*5 rst_n
*6 ui_in[0]
*7 ui_in[1]
*8 ui_in[2]
*9 ui_in[3]
*10 ui_in[4]
*11 ui_in[5]
*12 ui_in[6]
*13 ui_in[7]
*14 uio_in[0]
*15 uio_in[1]
*16 uio_in[2]
*17 uio_in[3]
*18 uio_in[4]
*19 uio_in[5]
*20 uio_in[6]
*21 uio_in[7]
*22 net47
*23 net48
*24 net49
*25 net50
*26 net51
*27 net52
*28 net53
*29 net54
*30 net55
*31 net56
*32 net57
*33 net58
*34 net59
*35 net60
*36 net61
*37 net62
*38 uo_out[0]
*39 net63
*40 net64
*41 net65
*42 net66
*43 net67
*44 net68
*45 net69
*46 bias_inst\.BUF
*47 bias_inst\.CTRL
*48 bias_inst\.OUT
*49 bias_inst\.bias
*50 bias_inst\.tri2sq
*51 clknet_0_clk
*52 clknet_1_0__leaf_clk
*53 clknet_1_1__leaf_clk
*54 dff1_out
*55 dff2_out
*56 net1
*57 net10
*58 net100
*59 net101
*60 net102
*61 net11
*62 net12
*63 net13
*64 net14
*65 net15
*66 net16
*67 net17
*68 net18
*69 net19
*70 net2
*71 net20
*72 net21
*73 net22
*74 net23
*75 net24
*76 net25
*77 net26
*78 net27
*79 net28
*80 net29
*81 net3
*82 net30
*83 net31
*84 net32
*85 net33
*86 net34
*87 net35
*88 net36
*89 net37
*90 net38
*91 net39
*92 net4
*93 net40
*94 net41
*95 net42
*96 net43
*97 net44
*98 net45
*99 net46
*100 net5
*101 net6
*102 net7
*103 net70
*104 net71
*105 net72
*106 net73
*107 net74
*108 net75
*109 net76
*110 net77
*111 net78
*112 net79
*113 net8
*114 net80
*115 net81
*116 net82
*117 net83
*118 net84
*119 net85
*120 net86
*121 net87
*122 net88
*123 net89
*124 net9
*125 net90
*126 net91
*127 net92
*128 net93
*129 net94
*130 net95
*131 net96
*132 net97
*133 net98
*134 net99
*135 ring_osc_inst\.multiple_ring_osc\[0\]\.ro\.delay_in\[1\]
*136 ring_osc_inst\.multiple_ring_osc\[0\]\.ro\.delay_in\[2\]
*137 ring_osc_inst\.multiple_ring_osc\[0\]\.ro\.delay_in\[3\]
*138 ring_osc_inst\.multiple_ring_osc\[0\]\.ro\.delay_in\[4\]
*139 ring_osc_inst\.multiple_ring_osc\[0\]\.ro\.delay_in\[5\]
*140 ring_osc_inst\.multiple_ring_osc\[0\]\.ro\.delay_out\[5\]
*141 ring_osc_inst\.multiple_ring_osc\[10\]\.ro\.delay_in\[1\]
*142 ring_osc_inst\.multiple_ring_osc\[10\]\.ro\.delay_in\[2\]
*143 ring_osc_inst\.multiple_ring_osc\[10\]\.ro\.delay_in\[3\]
*144 ring_osc_inst\.multiple_ring_osc\[10\]\.ro\.delay_in\[4\]
*145 ring_osc_inst\.multiple_ring_osc\[10\]\.ro\.delay_in\[5\]
*146 ring_osc_inst\.multiple_ring_osc\[10\]\.ro\.delay_out\[5\]
*147 ring_osc_inst\.multiple_ring_osc\[11\]\.ro\.delay_in\[1\]
*148 ring_osc_inst\.multiple_ring_osc\[11\]\.ro\.delay_in\[2\]
*149 ring_osc_inst\.multiple_ring_osc\[11\]\.ro\.delay_in\[3\]
*150 ring_osc_inst\.multiple_ring_osc\[11\]\.ro\.delay_in\[4\]
*151 ring_osc_inst\.multiple_ring_osc\[11\]\.ro\.delay_in\[5\]
*152 ring_osc_inst\.multiple_ring_osc\[11\]\.ro\.delay_out\[5\]
*153 ring_osc_inst\.multiple_ring_osc\[12\]\.ro\.delay_in\[1\]
*154 ring_osc_inst\.multiple_ring_osc\[12\]\.ro\.delay_in\[2\]
*155 ring_osc_inst\.multiple_ring_osc\[12\]\.ro\.delay_in\[3\]
*156 ring_osc_inst\.multiple_ring_osc\[12\]\.ro\.delay_in\[4\]
*157 ring_osc_inst\.multiple_ring_osc\[12\]\.ro\.delay_in\[5\]
*158 ring_osc_inst\.multiple_ring_osc\[12\]\.ro\.delay_out\[5\]
*159 ring_osc_inst\.multiple_ring_osc\[13\]\.ro\.delay_in\[1\]
*160 ring_osc_inst\.multiple_ring_osc\[13\]\.ro\.delay_in\[2\]
*161 ring_osc_inst\.multiple_ring_osc\[13\]\.ro\.delay_in\[3\]
*162 ring_osc_inst\.multiple_ring_osc\[13\]\.ro\.delay_in\[4\]
*163 ring_osc_inst\.multiple_ring_osc\[13\]\.ro\.delay_in\[5\]
*164 ring_osc_inst\.multiple_ring_osc\[13\]\.ro\.delay_out\[5\]
*165 ring_osc_inst\.multiple_ring_osc\[14\]\.ro\.delay_in\[1\]
*166 ring_osc_inst\.multiple_ring_osc\[14\]\.ro\.delay_in\[2\]
*167 ring_osc_inst\.multiple_ring_osc\[14\]\.ro\.delay_in\[3\]
*168 ring_osc_inst\.multiple_ring_osc\[14\]\.ro\.delay_in\[4\]
*169 ring_osc_inst\.multiple_ring_osc\[14\]\.ro\.delay_in\[5\]
*170 ring_osc_inst\.multiple_ring_osc\[14\]\.ro\.delay_out\[5\]
*171 ring_osc_inst\.multiple_ring_osc\[1\]\.ro\.delay_in\[1\]
*172 ring_osc_inst\.multiple_ring_osc\[1\]\.ro\.delay_in\[2\]
*173 ring_osc_inst\.multiple_ring_osc\[1\]\.ro\.delay_in\[3\]
*174 ring_osc_inst\.multiple_ring_osc\[1\]\.ro\.delay_in\[4\]
*175 ring_osc_inst\.multiple_ring_osc\[1\]\.ro\.delay_in\[5\]
*176 ring_osc_inst\.multiple_ring_osc\[1\]\.ro\.delay_out\[5\]
*177 ring_osc_inst\.multiple_ring_osc\[2\]\.ro\.delay_in\[1\]
*178 ring_osc_inst\.multiple_ring_osc\[2\]\.ro\.delay_in\[2\]
*179 ring_osc_inst\.multiple_ring_osc\[2\]\.ro\.delay_in\[3\]
*180 ring_osc_inst\.multiple_ring_osc\[2\]\.ro\.delay_in\[4\]
*181 ring_osc_inst\.multiple_ring_osc\[2\]\.ro\.delay_in\[5\]
*182 ring_osc_inst\.multiple_ring_osc\[2\]\.ro\.delay_out\[5\]
*183 ring_osc_inst\.multiple_ring_osc\[3\]\.ro\.delay_in\[1\]
*184 ring_osc_inst\.multiple_ring_osc\[3\]\.ro\.delay_in\[2\]
*185 ring_osc_inst\.multiple_ring_osc\[3\]\.ro\.delay_in\[3\]
*186 ring_osc_inst\.multiple_ring_osc\[3\]\.ro\.delay_in\[4\]
*187 ring_osc_inst\.multiple_ring_osc\[3\]\.ro\.delay_in\[5\]
*188 ring_osc_inst\.multiple_ring_osc\[3\]\.ro\.delay_out\[5\]
*189 ring_osc_inst\.multiple_ring_osc\[4\]\.ro\.delay_in\[1\]
*190 ring_osc_inst\.multiple_ring_osc\[4\]\.ro\.delay_in\[2\]
*191 ring_osc_inst\.multiple_ring_osc\[4\]\.ro\.delay_in\[3\]
*192 ring_osc_inst\.multiple_ring_osc\[4\]\.ro\.delay_in\[4\]
*193 ring_osc_inst\.multiple_ring_osc\[4\]\.ro\.delay_in\[5\]
*194 ring_osc_inst\.multiple_ring_osc\[4\]\.ro\.delay_out\[5\]
*195 ring_osc_inst\.multiple_ring_osc\[5\]\.ro\.delay_in\[1\]
*196 ring_osc_inst\.multiple_ring_osc\[5\]\.ro\.delay_in\[2\]
*197 ring_osc_inst\.multiple_ring_osc\[5\]\.ro\.delay_in\[3\]
*198 ring_osc_inst\.multiple_ring_osc\[5\]\.ro\.delay_in\[4\]
*199 ring_osc_inst\.multiple_ring_osc\[5\]\.ro\.delay_in\[5\]
*200 ring_osc_inst\.multiple_ring_osc\[5\]\.ro\.delay_out\[5\]
*201 ring_osc_inst\.multiple_ring_osc\[6\]\.ro\.delay_in\[1\]
*202 ring_osc_inst\.multiple_ring_osc\[6\]\.ro\.delay_in\[2\]
*203 ring_osc_inst\.multiple_ring_osc\[6\]\.ro\.delay_in\[3\]
*204 ring_osc_inst\.multiple_ring_osc\[6\]\.ro\.delay_in\[4\]
*205 ring_osc_inst\.multiple_ring_osc\[6\]\.ro\.delay_in\[5\]
*206 ring_osc_inst\.multiple_ring_osc\[6\]\.ro\.delay_out\[5\]
*207 ring_osc_inst\.multiple_ring_osc\[7\]\.ro\.delay_in\[1\]
*208 ring_osc_inst\.multiple_ring_osc\[7\]\.ro\.delay_in\[2\]
*209 ring_osc_inst\.multiple_ring_osc\[7\]\.ro\.delay_in\[3\]
*210 ring_osc_inst\.multiple_ring_osc\[7\]\.ro\.delay_in\[4\]
*211 ring_osc_inst\.multiple_ring_osc\[7\]\.ro\.delay_in\[5\]
*212 ring_osc_inst\.multiple_ring_osc\[7\]\.ro\.delay_out\[5\]
*213 ring_osc_inst\.multiple_ring_osc\[8\]\.ro\.delay_in\[1\]
*214 ring_osc_inst\.multiple_ring_osc\[8\]\.ro\.delay_in\[2\]
*215 ring_osc_inst\.multiple_ring_osc\[8\]\.ro\.delay_in\[3\]
*216 ring_osc_inst\.multiple_ring_osc\[8\]\.ro\.delay_in\[4\]
*217 ring_osc_inst\.multiple_ring_osc\[8\]\.ro\.delay_in\[5\]
*218 ring_osc_inst\.multiple_ring_osc\[8\]\.ro\.delay_out\[5\]
*219 ring_osc_inst\.multiple_ring_osc\[9\]\.ro\.delay_in\[1\]
*220 ring_osc_inst\.multiple_ring_osc\[9\]\.ro\.delay_in\[2\]
*221 ring_osc_inst\.multiple_ring_osc\[9\]\.ro\.delay_in\[3\]
*222 ring_osc_inst\.multiple_ring_osc\[9\]\.ro\.delay_in\[4\]
*223 ring_osc_inst\.multiple_ring_osc\[9\]\.ro\.delay_in\[5\]
*224 ring_osc_inst\.multiple_ring_osc\[9\]\.ro\.delay_out\[5\]
*225 ANTENNA_1
*226 ANTENNA_2
*227 FILLER_0_0_109
*228 FILLER_0_0_113
*229 FILLER_0_0_125
*230 FILLER_0_0_137
*231 FILLER_0_0_141
*232 FILLER_0_0_15
*233 FILLER_0_0_153
*234 FILLER_0_0_165
*235 FILLER_0_0_169
*236 FILLER_0_0_181
*237 FILLER_0_0_193
*238 FILLER_0_0_197
*239 FILLER_0_0_209
*240 FILLER_0_0_221
*241 FILLER_0_0_225
*242 FILLER_0_0_237
*243 FILLER_0_0_249
*244 FILLER_0_0_253
*245 FILLER_0_0_265
*246 FILLER_0_0_27
*247 FILLER_0_0_277
*248 FILLER_0_0_281
*249 FILLER_0_0_29
*250 FILLER_0_0_293
*251 FILLER_0_0_3
*252 FILLER_0_0_305
*253 FILLER_0_0_309
*254 FILLER_0_0_321
*255 FILLER_0_0_333
*256 FILLER_0_0_337
*257 FILLER_0_0_349
*258 FILLER_0_0_41
*259 FILLER_0_0_53
*260 FILLER_0_0_57
*261 FILLER_0_0_69
*262 FILLER_0_0_81
*263 FILLER_0_0_85
*264 FILLER_0_0_97
*265 FILLER_0_10_109
*266 FILLER_0_10_121
*267 FILLER_0_10_133
*268 FILLER_0_10_139
*269 FILLER_0_10_141
*270 FILLER_0_10_15
*271 FILLER_0_10_153
*272 FILLER_0_10_165
*273 FILLER_0_10_177
*274 FILLER_0_10_189
*275 FILLER_0_10_195
*276 FILLER_0_10_197
*277 FILLER_0_10_209
*278 FILLER_0_10_221
*279 FILLER_0_10_233
*280 FILLER_0_10_245
*281 FILLER_0_10_251
*282 FILLER_0_10_253
*283 FILLER_0_10_265
*284 FILLER_0_10_27
*285 FILLER_0_10_277
*286 FILLER_0_10_289
*287 FILLER_0_10_29
*288 FILLER_0_10_3
*289 FILLER_0_10_301
*290 FILLER_0_10_307
*291 FILLER_0_10_309
*292 FILLER_0_10_321
*293 FILLER_0_10_333
*294 FILLER_0_10_345
*295 FILLER_0_10_41
*296 FILLER_0_10_53
*297 FILLER_0_10_65
*298 FILLER_0_10_77
*299 FILLER_0_10_83
*300 FILLER_0_10_85
*301 FILLER_0_10_97
*302 FILLER_0_11_105
*303 FILLER_0_11_111
*304 FILLER_0_11_113
*305 FILLER_0_11_125
*306 FILLER_0_11_137
*307 FILLER_0_11_149
*308 FILLER_0_11_15
*309 FILLER_0_11_161
*310 FILLER_0_11_167
*311 FILLER_0_11_169
*312 FILLER_0_11_181
*313 FILLER_0_11_193
*314 FILLER_0_11_205
*315 FILLER_0_11_217
*316 FILLER_0_11_223
*317 FILLER_0_11_225
*318 FILLER_0_11_237
*319 FILLER_0_11_249
*320 FILLER_0_11_261
*321 FILLER_0_11_27
*322 FILLER_0_11_273
*323 FILLER_0_11_279
*324 FILLER_0_11_281
*325 FILLER_0_11_293
*326 FILLER_0_11_3
*327 FILLER_0_11_305
*328 FILLER_0_11_317
*329 FILLER_0_11_329
*330 FILLER_0_11_335
*331 FILLER_0_11_337
*332 FILLER_0_11_349
*333 FILLER_0_11_39
*334 FILLER_0_11_51
*335 FILLER_0_11_55
*336 FILLER_0_11_57
*337 FILLER_0_11_69
*338 FILLER_0_11_81
*339 FILLER_0_11_93
*340 FILLER_0_12_109
*341 FILLER_0_12_121
*342 FILLER_0_12_133
*343 FILLER_0_12_139
*344 FILLER_0_12_141
*345 FILLER_0_12_15
*346 FILLER_0_12_153
*347 FILLER_0_12_165
*348 FILLER_0_12_177
*349 FILLER_0_12_189
*350 FILLER_0_12_195
*351 FILLER_0_12_197
*352 FILLER_0_12_209
*353 FILLER_0_12_221
*354 FILLER_0_12_233
*355 FILLER_0_12_245
*356 FILLER_0_12_251
*357 FILLER_0_12_253
*358 FILLER_0_12_265
*359 FILLER_0_12_27
*360 FILLER_0_12_277
*361 FILLER_0_12_289
*362 FILLER_0_12_29
*363 FILLER_0_12_3
*364 FILLER_0_12_301
*365 FILLER_0_12_307
*366 FILLER_0_12_309
*367 FILLER_0_12_321
*368 FILLER_0_12_333
*369 FILLER_0_12_345
*370 FILLER_0_12_41
*371 FILLER_0_12_53
*372 FILLER_0_12_65
*373 FILLER_0_12_77
*374 FILLER_0_12_83
*375 FILLER_0_12_85
*376 FILLER_0_12_97
*377 FILLER_0_13_105
*378 FILLER_0_13_111
*379 FILLER_0_13_113
*380 FILLER_0_13_125
*381 FILLER_0_13_137
*382 FILLER_0_13_149
*383 FILLER_0_13_15
*384 FILLER_0_13_161
*385 FILLER_0_13_167
*386 FILLER_0_13_169
*387 FILLER_0_13_181
*388 FILLER_0_13_193
*389 FILLER_0_13_205
*390 FILLER_0_13_217
*391 FILLER_0_13_223
*392 FILLER_0_13_225
*393 FILLER_0_13_237
*394 FILLER_0_13_249
*395 FILLER_0_13_261
*396 FILLER_0_13_27
*397 FILLER_0_13_273
*398 FILLER_0_13_279
*399 FILLER_0_13_281
*400 FILLER_0_13_293
*401 FILLER_0_13_3
*402 FILLER_0_13_305
*403 FILLER_0_13_317
*404 FILLER_0_13_329
*405 FILLER_0_13_335
*406 FILLER_0_13_337
*407 FILLER_0_13_349
*408 FILLER_0_13_39
*409 FILLER_0_13_51
*410 FILLER_0_13_55
*411 FILLER_0_13_57
*412 FILLER_0_13_69
*413 FILLER_0_13_81
*414 FILLER_0_13_93
*415 FILLER_0_14_109
*416 FILLER_0_14_121
*417 FILLER_0_14_133
*418 FILLER_0_14_139
*419 FILLER_0_14_141
*420 FILLER_0_14_15
*421 FILLER_0_14_153
*422 FILLER_0_14_165
*423 FILLER_0_14_177
*424 FILLER_0_14_189
*425 FILLER_0_14_195
*426 FILLER_0_14_197
*427 FILLER_0_14_209
*428 FILLER_0_14_221
*429 FILLER_0_14_233
*430 FILLER_0_14_245
*431 FILLER_0_14_251
*432 FILLER_0_14_253
*433 FILLER_0_14_265
*434 FILLER_0_14_27
*435 FILLER_0_14_277
*436 FILLER_0_14_289
*437 FILLER_0_14_29
*438 FILLER_0_14_3
*439 FILLER_0_14_301
*440 FILLER_0_14_307
*441 FILLER_0_14_309
*442 FILLER_0_14_321
*443 FILLER_0_14_333
*444 FILLER_0_14_345
*445 FILLER_0_14_41
*446 FILLER_0_14_53
*447 FILLER_0_14_65
*448 FILLER_0_14_77
*449 FILLER_0_14_83
*450 FILLER_0_14_85
*451 FILLER_0_14_97
*452 FILLER_0_15_105
*453 FILLER_0_15_111
*454 FILLER_0_15_113
*455 FILLER_0_15_125
*456 FILLER_0_15_137
*457 FILLER_0_15_149
*458 FILLER_0_15_15
*459 FILLER_0_15_161
*460 FILLER_0_15_167
*461 FILLER_0_15_169
*462 FILLER_0_15_181
*463 FILLER_0_15_193
*464 FILLER_0_15_205
*465 FILLER_0_15_217
*466 FILLER_0_15_223
*467 FILLER_0_15_225
*468 FILLER_0_15_237
*469 FILLER_0_15_249
*470 FILLER_0_15_261
*471 FILLER_0_15_27
*472 FILLER_0_15_273
*473 FILLER_0_15_279
*474 FILLER_0_15_281
*475 FILLER_0_15_293
*476 FILLER_0_15_3
*477 FILLER_0_15_305
*478 FILLER_0_15_317
*479 FILLER_0_15_329
*480 FILLER_0_15_335
*481 FILLER_0_15_337
*482 FILLER_0_15_349
*483 FILLER_0_15_39
*484 FILLER_0_15_51
*485 FILLER_0_15_55
*486 FILLER_0_15_57
*487 FILLER_0_15_69
*488 FILLER_0_15_81
*489 FILLER_0_15_93
*490 FILLER_0_16_109
*491 FILLER_0_16_121
*492 FILLER_0_16_133
*493 FILLER_0_16_139
*494 FILLER_0_16_141
*495 FILLER_0_16_15
*496 FILLER_0_16_153
*497 FILLER_0_16_165
*498 FILLER_0_16_177
*499 FILLER_0_16_189
*500 FILLER_0_16_195
*501 FILLER_0_16_197
*502 FILLER_0_16_209
*503 FILLER_0_16_221
*504 FILLER_0_16_233
*505 FILLER_0_16_245
*506 FILLER_0_16_251
*507 FILLER_0_16_253
*508 FILLER_0_16_265
*509 FILLER_0_16_27
*510 FILLER_0_16_277
*511 FILLER_0_16_289
*512 FILLER_0_16_29
*513 FILLER_0_16_3
*514 FILLER_0_16_301
*515 FILLER_0_16_307
*516 FILLER_0_16_309
*517 FILLER_0_16_321
*518 FILLER_0_16_333
*519 FILLER_0_16_345
*520 FILLER_0_16_41
*521 FILLER_0_16_53
*522 FILLER_0_16_65
*523 FILLER_0_16_77
*524 FILLER_0_16_83
*525 FILLER_0_16_85
*526 FILLER_0_16_97
*527 FILLER_0_17_105
*528 FILLER_0_17_111
*529 FILLER_0_17_113
*530 FILLER_0_17_125
*531 FILLER_0_17_137
*532 FILLER_0_17_149
*533 FILLER_0_17_15
*534 FILLER_0_17_161
*535 FILLER_0_17_167
*536 FILLER_0_17_169
*537 FILLER_0_17_181
*538 FILLER_0_17_193
*539 FILLER_0_17_205
*540 FILLER_0_17_217
*541 FILLER_0_17_223
*542 FILLER_0_17_225
*543 FILLER_0_17_237
*544 FILLER_0_17_249
*545 FILLER_0_17_261
*546 FILLER_0_17_27
*547 FILLER_0_17_273
*548 FILLER_0_17_279
*549 FILLER_0_17_281
*550 FILLER_0_17_293
*551 FILLER_0_17_3
*552 FILLER_0_17_305
*553 FILLER_0_17_317
*554 FILLER_0_17_329
*555 FILLER_0_17_335
*556 FILLER_0_17_337
*557 FILLER_0_17_349
*558 FILLER_0_17_39
*559 FILLER_0_17_51
*560 FILLER_0_17_55
*561 FILLER_0_17_57
*562 FILLER_0_17_69
*563 FILLER_0_17_81
*564 FILLER_0_17_93
*565 FILLER_0_18_109
*566 FILLER_0_18_121
*567 FILLER_0_18_133
*568 FILLER_0_18_139
*569 FILLER_0_18_141
*570 FILLER_0_18_15
*571 FILLER_0_18_153
*572 FILLER_0_18_165
*573 FILLER_0_18_177
*574 FILLER_0_18_189
*575 FILLER_0_18_195
*576 FILLER_0_18_197
*577 FILLER_0_18_209
*578 FILLER_0_18_221
*579 FILLER_0_18_233
*580 FILLER_0_18_245
*581 FILLER_0_18_251
*582 FILLER_0_18_253
*583 FILLER_0_18_265
*584 FILLER_0_18_27
*585 FILLER_0_18_277
*586 FILLER_0_18_289
*587 FILLER_0_18_29
*588 FILLER_0_18_3
*589 FILLER_0_18_301
*590 FILLER_0_18_307
*591 FILLER_0_18_309
*592 FILLER_0_18_321
*593 FILLER_0_18_333
*594 FILLER_0_18_345
*595 FILLER_0_18_350
*596 FILLER_0_18_41
*597 FILLER_0_18_53
*598 FILLER_0_18_65
*599 FILLER_0_18_77
*600 FILLER_0_18_83
*601 FILLER_0_18_85
*602 FILLER_0_18_97
*603 FILLER_0_19_105
*604 FILLER_0_19_111
*605 FILLER_0_19_113
*606 FILLER_0_19_125
*607 FILLER_0_19_137
*608 FILLER_0_19_149
*609 FILLER_0_19_15
*610 FILLER_0_19_161
*611 FILLER_0_19_167
*612 FILLER_0_19_169
*613 FILLER_0_19_181
*614 FILLER_0_19_193
*615 FILLER_0_19_205
*616 FILLER_0_19_217
*617 FILLER_0_19_223
*618 FILLER_0_19_225
*619 FILLER_0_19_237
*620 FILLER_0_19_249
*621 FILLER_0_19_261
*622 FILLER_0_19_27
*623 FILLER_0_19_273
*624 FILLER_0_19_279
*625 FILLER_0_19_281
*626 FILLER_0_19_293
*627 FILLER_0_19_3
*628 FILLER_0_19_305
*629 FILLER_0_19_317
*630 FILLER_0_19_329
*631 FILLER_0_19_335
*632 FILLER_0_19_349
*633 FILLER_0_19_39
*634 FILLER_0_19_51
*635 FILLER_0_19_55
*636 FILLER_0_19_57
*637 FILLER_0_19_69
*638 FILLER_0_19_81
*639 FILLER_0_19_93
*640 FILLER_0_1_105
*641 FILLER_0_1_111
*642 FILLER_0_1_113
*643 FILLER_0_1_125
*644 FILLER_0_1_137
*645 FILLER_0_1_149
*646 FILLER_0_1_15
*647 FILLER_0_1_161
*648 FILLER_0_1_167
*649 FILLER_0_1_169
*650 FILLER_0_1_181
*651 FILLER_0_1_193
*652 FILLER_0_1_205
*653 FILLER_0_1_217
*654 FILLER_0_1_223
*655 FILLER_0_1_225
*656 FILLER_0_1_237
*657 FILLER_0_1_249
*658 FILLER_0_1_261
*659 FILLER_0_1_27
*660 FILLER_0_1_273
*661 FILLER_0_1_279
*662 FILLER_0_1_281
*663 FILLER_0_1_293
*664 FILLER_0_1_3
*665 FILLER_0_1_305
*666 FILLER_0_1_317
*667 FILLER_0_1_329
*668 FILLER_0_1_335
*669 FILLER_0_1_337
*670 FILLER_0_1_349
*671 FILLER_0_1_39
*672 FILLER_0_1_51
*673 FILLER_0_1_55
*674 FILLER_0_1_57
*675 FILLER_0_1_69
*676 FILLER_0_1_81
*677 FILLER_0_1_93
*678 FILLER_0_20_109
*679 FILLER_0_20_121
*680 FILLER_0_20_133
*681 FILLER_0_20_139
*682 FILLER_0_20_141
*683 FILLER_0_20_15
*684 FILLER_0_20_153
*685 FILLER_0_20_165
*686 FILLER_0_20_177
*687 FILLER_0_20_189
*688 FILLER_0_20_195
*689 FILLER_0_20_197
*690 FILLER_0_20_209
*691 FILLER_0_20_221
*692 FILLER_0_20_233
*693 FILLER_0_20_245
*694 FILLER_0_20_251
*695 FILLER_0_20_253
*696 FILLER_0_20_265
*697 FILLER_0_20_27
*698 FILLER_0_20_277
*699 FILLER_0_20_289
*700 FILLER_0_20_29
*701 FILLER_0_20_3
*702 FILLER_0_20_301
*703 FILLER_0_20_307
*704 FILLER_0_20_309
*705 FILLER_0_20_321
*706 FILLER_0_20_329
*707 FILLER_0_20_41
*708 FILLER_0_20_53
*709 FILLER_0_20_65
*710 FILLER_0_20_77
*711 FILLER_0_20_83
*712 FILLER_0_20_85
*713 FILLER_0_20_97
*714 FILLER_0_21_105
*715 FILLER_0_21_111
*716 FILLER_0_21_113
*717 FILLER_0_21_125
*718 FILLER_0_21_137
*719 FILLER_0_21_149
*720 FILLER_0_21_15
*721 FILLER_0_21_161
*722 FILLER_0_21_167
*723 FILLER_0_21_169
*724 FILLER_0_21_181
*725 FILLER_0_21_193
*726 FILLER_0_21_205
*727 FILLER_0_21_217
*728 FILLER_0_21_223
*729 FILLER_0_21_225
*730 FILLER_0_21_237
*731 FILLER_0_21_249
*732 FILLER_0_21_261
*733 FILLER_0_21_27
*734 FILLER_0_21_273
*735 FILLER_0_21_279
*736 FILLER_0_21_281
*737 FILLER_0_21_293
*738 FILLER_0_21_3
*739 FILLER_0_21_305
*740 FILLER_0_21_317
*741 FILLER_0_21_325
*742 FILLER_0_21_340
*743 FILLER_0_21_344
*744 FILLER_0_21_39
*745 FILLER_0_21_51
*746 FILLER_0_21_55
*747 FILLER_0_21_57
*748 FILLER_0_21_69
*749 FILLER_0_21_81
*750 FILLER_0_21_93
*751 FILLER_0_22_109
*752 FILLER_0_22_121
*753 FILLER_0_22_133
*754 FILLER_0_22_139
*755 FILLER_0_22_141
*756 FILLER_0_22_15
*757 FILLER_0_22_153
*758 FILLER_0_22_165
*759 FILLER_0_22_177
*760 FILLER_0_22_189
*761 FILLER_0_22_195
*762 FILLER_0_22_197
*763 FILLER_0_22_209
*764 FILLER_0_22_221
*765 FILLER_0_22_233
*766 FILLER_0_22_245
*767 FILLER_0_22_251
*768 FILLER_0_22_253
*769 FILLER_0_22_265
*770 FILLER_0_22_27
*771 FILLER_0_22_277
*772 FILLER_0_22_289
*773 FILLER_0_22_29
*774 FILLER_0_22_3
*775 FILLER_0_22_301
*776 FILLER_0_22_307
*777 FILLER_0_22_309
*778 FILLER_0_22_41
*779 FILLER_0_22_53
*780 FILLER_0_22_65
*781 FILLER_0_22_77
*782 FILLER_0_22_83
*783 FILLER_0_22_85
*784 FILLER_0_22_97
*785 FILLER_0_23_105
*786 FILLER_0_23_111
*787 FILLER_0_23_113
*788 FILLER_0_23_125
*789 FILLER_0_23_137
*790 FILLER_0_23_149
*791 FILLER_0_23_15
*792 FILLER_0_23_161
*793 FILLER_0_23_167
*794 FILLER_0_23_169
*795 FILLER_0_23_181
*796 FILLER_0_23_193
*797 FILLER_0_23_205
*798 FILLER_0_23_217
*799 FILLER_0_23_223
*800 FILLER_0_23_225
*801 FILLER_0_23_237
*802 FILLER_0_23_249
*803 FILLER_0_23_261
*804 FILLER_0_23_27
*805 FILLER_0_23_273
*806 FILLER_0_23_279
*807 FILLER_0_23_281
*808 FILLER_0_23_293
*809 FILLER_0_23_298
*810 FILLER_0_23_3
*811 FILLER_0_23_337
*812 FILLER_0_23_39
*813 FILLER_0_23_51
*814 FILLER_0_23_55
*815 FILLER_0_23_57
*816 FILLER_0_23_69
*817 FILLER_0_23_81
*818 FILLER_0_23_93
*819 FILLER_0_24_109
*820 FILLER_0_24_121
*821 FILLER_0_24_133
*822 FILLER_0_24_139
*823 FILLER_0_24_141
*824 FILLER_0_24_15
*825 FILLER_0_24_153
*826 FILLER_0_24_165
*827 FILLER_0_24_177
*828 FILLER_0_24_189
*829 FILLER_0_24_195
*830 FILLER_0_24_197
*831 FILLER_0_24_209
*832 FILLER_0_24_221
*833 FILLER_0_24_233
*834 FILLER_0_24_245
*835 FILLER_0_24_251
*836 FILLER_0_24_253
*837 FILLER_0_24_265
*838 FILLER_0_24_27
*839 FILLER_0_24_277
*840 FILLER_0_24_29
*841 FILLER_0_24_3
*842 FILLER_0_24_307
*843 FILLER_0_24_41
*844 FILLER_0_24_53
*845 FILLER_0_24_65
*846 FILLER_0_24_77
*847 FILLER_0_24_83
*848 FILLER_0_24_85
*849 FILLER_0_24_97
*850 FILLER_0_25_105
*851 FILLER_0_25_111
*852 FILLER_0_25_113
*853 FILLER_0_25_125
*854 FILLER_0_25_137
*855 FILLER_0_25_149
*856 FILLER_0_25_15
*857 FILLER_0_25_161
*858 FILLER_0_25_167
*859 FILLER_0_25_169
*860 FILLER_0_25_181
*861 FILLER_0_25_193
*862 FILLER_0_25_205
*863 FILLER_0_25_217
*864 FILLER_0_25_223
*865 FILLER_0_25_225
*866 FILLER_0_25_237
*867 FILLER_0_25_249
*868 FILLER_0_25_261
*869 FILLER_0_25_27
*870 FILLER_0_25_273
*871 FILLER_0_25_3
*872 FILLER_0_25_335
*873 FILLER_0_25_349
*874 FILLER_0_25_39
*875 FILLER_0_25_51
*876 FILLER_0_25_55
*877 FILLER_0_25_57
*878 FILLER_0_25_69
*879 FILLER_0_25_81
*880 FILLER_0_25_93
*881 FILLER_0_26_109
*882 FILLER_0_26_121
*883 FILLER_0_26_133
*884 FILLER_0_26_139
*885 FILLER_0_26_141
*886 FILLER_0_26_15
*887 FILLER_0_26_153
*888 FILLER_0_26_165
*889 FILLER_0_26_177
*890 FILLER_0_26_189
*891 FILLER_0_26_195
*892 FILLER_0_26_197
*893 FILLER_0_26_209
*894 FILLER_0_26_221
*895 FILLER_0_26_233
*896 FILLER_0_26_245
*897 FILLER_0_26_251
*898 FILLER_0_26_253
*899 FILLER_0_26_265
*900 FILLER_0_26_27
*901 FILLER_0_26_29
*902 FILLER_0_26_3
*903 FILLER_0_26_302
*904 FILLER_0_26_307
*905 FILLER_0_26_41
*906 FILLER_0_26_53
*907 FILLER_0_26_65
*908 FILLER_0_26_77
*909 FILLER_0_26_83
*910 FILLER_0_26_85
*911 FILLER_0_26_97
*912 FILLER_0_27_105
*913 FILLER_0_27_111
*914 FILLER_0_27_113
*915 FILLER_0_27_125
*916 FILLER_0_27_137
*917 FILLER_0_27_149
*918 FILLER_0_27_15
*919 FILLER_0_27_161
*920 FILLER_0_27_167
*921 FILLER_0_27_169
*922 FILLER_0_27_181
*923 FILLER_0_27_193
*924 FILLER_0_27_205
*925 FILLER_0_27_217
*926 FILLER_0_27_223
*927 FILLER_0_27_225
*928 FILLER_0_27_237
*929 FILLER_0_27_249
*930 FILLER_0_27_253
*931 FILLER_0_27_260
*932 FILLER_0_27_27
*933 FILLER_0_27_3
*934 FILLER_0_27_335
*935 FILLER_0_27_349
*936 FILLER_0_27_39
*937 FILLER_0_27_51
*938 FILLER_0_27_55
*939 FILLER_0_27_57
*940 FILLER_0_27_69
*941 FILLER_0_27_81
*942 FILLER_0_27_93
*943 FILLER_0_28_109
*944 FILLER_0_28_121
*945 FILLER_0_28_133
*946 FILLER_0_28_139
*947 FILLER_0_28_141
*948 FILLER_0_28_15
*949 FILLER_0_28_153
*950 FILLER_0_28_165
*951 FILLER_0_28_177
*952 FILLER_0_28_189
*953 FILLER_0_28_195
*954 FILLER_0_28_197
*955 FILLER_0_28_209
*956 FILLER_0_28_221
*957 FILLER_0_28_233
*958 FILLER_0_28_245
*959 FILLER_0_28_258
*960 FILLER_0_28_27
*961 FILLER_0_28_29
*962 FILLER_0_28_3
*963 FILLER_0_28_327
*964 FILLER_0_28_41
*965 FILLER_0_28_53
*966 FILLER_0_28_65
*967 FILLER_0_28_77
*968 FILLER_0_28_83
*969 FILLER_0_28_85
*970 FILLER_0_28_97
*971 FILLER_0_29_105
*972 FILLER_0_29_111
*973 FILLER_0_29_113
*974 FILLER_0_29_125
*975 FILLER_0_29_137
*976 FILLER_0_29_149
*977 FILLER_0_29_15
*978 FILLER_0_29_161
*979 FILLER_0_29_167
*980 FILLER_0_29_169
*981 FILLER_0_29_181
*982 FILLER_0_29_193
*983 FILLER_0_29_205
*984 FILLER_0_29_217
*985 FILLER_0_29_223
*986 FILLER_0_29_225
*987 FILLER_0_29_233
*988 FILLER_0_29_241
*989 FILLER_0_29_27
*990 FILLER_0_29_3
*991 FILLER_0_29_335
*992 FILLER_0_29_337
*993 FILLER_0_29_39
*994 FILLER_0_29_51
*995 FILLER_0_29_55
*996 FILLER_0_29_57
*997 FILLER_0_29_69
*998 FILLER_0_29_81
*999 FILLER_0_29_93
*1000 FILLER_0_2_109
*1001 FILLER_0_2_121
*1002 FILLER_0_2_133
*1003 FILLER_0_2_139
*1004 FILLER_0_2_141
*1005 FILLER_0_2_15
*1006 FILLER_0_2_153
*1007 FILLER_0_2_165
*1008 FILLER_0_2_177
*1009 FILLER_0_2_189
*1010 FILLER_0_2_195
*1011 FILLER_0_2_197
*1012 FILLER_0_2_209
*1013 FILLER_0_2_221
*1014 FILLER_0_2_233
*1015 FILLER_0_2_245
*1016 FILLER_0_2_251
*1017 FILLER_0_2_253
*1018 FILLER_0_2_265
*1019 FILLER_0_2_27
*1020 FILLER_0_2_277
*1021 FILLER_0_2_289
*1022 FILLER_0_2_29
*1023 FILLER_0_2_3
*1024 FILLER_0_2_301
*1025 FILLER_0_2_307
*1026 FILLER_0_2_309
*1027 FILLER_0_2_321
*1028 FILLER_0_2_333
*1029 FILLER_0_2_345
*1030 FILLER_0_2_41
*1031 FILLER_0_2_53
*1032 FILLER_0_2_65
*1033 FILLER_0_2_77
*1034 FILLER_0_2_83
*1035 FILLER_0_2_85
*1036 FILLER_0_2_97
*1037 FILLER_0_30_109
*1038 FILLER_0_30_121
*1039 FILLER_0_30_133
*1040 FILLER_0_30_139
*1041 FILLER_0_30_141
*1042 FILLER_0_30_15
*1043 FILLER_0_30_153
*1044 FILLER_0_30_165
*1045 FILLER_0_30_177
*1046 FILLER_0_30_189
*1047 FILLER_0_30_195
*1048 FILLER_0_30_197
*1049 FILLER_0_30_209
*1050 FILLER_0_30_221
*1051 FILLER_0_30_227
*1052 FILLER_0_30_253
*1053 FILLER_0_30_27
*1054 FILLER_0_30_29
*1055 FILLER_0_30_3
*1056 FILLER_0_30_41
*1057 FILLER_0_30_53
*1058 FILLER_0_30_65
*1059 FILLER_0_30_77
*1060 FILLER_0_30_83
*1061 FILLER_0_30_85
*1062 FILLER_0_30_97
*1063 FILLER_0_31_105
*1064 FILLER_0_31_111
*1065 FILLER_0_31_113
*1066 FILLER_0_31_125
*1067 FILLER_0_31_137
*1068 FILLER_0_31_149
*1069 FILLER_0_31_15
*1070 FILLER_0_31_161
*1071 FILLER_0_31_167
*1072 FILLER_0_31_169
*1073 FILLER_0_31_181
*1074 FILLER_0_31_193
*1075 FILLER_0_31_205
*1076 FILLER_0_31_217
*1077 FILLER_0_31_223
*1078 FILLER_0_31_225
*1079 FILLER_0_31_27
*1080 FILLER_0_31_3
*1081 FILLER_0_31_335
*1082 FILLER_0_31_349
*1083 FILLER_0_31_39
*1084 FILLER_0_31_51
*1085 FILLER_0_31_55
*1086 FILLER_0_31_57
*1087 FILLER_0_31_69
*1088 FILLER_0_31_81
*1089 FILLER_0_31_93
*1090 FILLER_0_32_109
*1091 FILLER_0_32_121
*1092 FILLER_0_32_133
*1093 FILLER_0_32_139
*1094 FILLER_0_32_141
*1095 FILLER_0_32_15
*1096 FILLER_0_32_153
*1097 FILLER_0_32_165
*1098 FILLER_0_32_177
*1099 FILLER_0_32_189
*1100 FILLER_0_32_195
*1101 FILLER_0_32_197
*1102 FILLER_0_32_209
*1103 FILLER_0_32_213
*1104 FILLER_0_32_256
*1105 FILLER_0_32_27
*1106 FILLER_0_32_29
*1107 FILLER_0_32_3
*1108 FILLER_0_32_306
*1109 FILLER_0_32_345
*1110 FILLER_0_32_41
*1111 FILLER_0_32_53
*1112 FILLER_0_32_65
*1113 FILLER_0_32_77
*1114 FILLER_0_32_83
*1115 FILLER_0_32_85
*1116 FILLER_0_32_97
*1117 FILLER_0_33_105
*1118 FILLER_0_33_111
*1119 FILLER_0_33_113
*1120 FILLER_0_33_125
*1121 FILLER_0_33_137
*1122 FILLER_0_33_149
*1123 FILLER_0_33_15
*1124 FILLER_0_33_161
*1125 FILLER_0_33_167
*1126 FILLER_0_33_169
*1127 FILLER_0_33_181
*1128 FILLER_0_33_193
*1129 FILLER_0_33_201
*1130 FILLER_0_33_225
*1131 FILLER_0_33_27
*1132 FILLER_0_33_3
*1133 FILLER_0_33_334
*1134 FILLER_0_33_337
*1135 FILLER_0_33_39
*1136 FILLER_0_33_51
*1137 FILLER_0_33_55
*1138 FILLER_0_33_57
*1139 FILLER_0_33_69
*1140 FILLER_0_33_81
*1141 FILLER_0_33_93
*1142 FILLER_0_34_109
*1143 FILLER_0_34_121
*1144 FILLER_0_34_133
*1145 FILLER_0_34_139
*1146 FILLER_0_34_141
*1147 FILLER_0_34_15
*1148 FILLER_0_34_153
*1149 FILLER_0_34_165
*1150 FILLER_0_34_177
*1151 FILLER_0_34_189
*1152 FILLER_0_34_195
*1153 FILLER_0_34_197
*1154 FILLER_0_34_214
*1155 FILLER_0_34_27
*1156 FILLER_0_34_29
*1157 FILLER_0_34_3
*1158 FILLER_0_34_301
*1159 FILLER_0_34_306
*1160 FILLER_0_34_41
*1161 FILLER_0_34_53
*1162 FILLER_0_34_65
*1163 FILLER_0_34_77
*1164 FILLER_0_34_83
*1165 FILLER_0_34_85
*1166 FILLER_0_34_97
*1167 FILLER_0_35_105
*1168 FILLER_0_35_111
*1169 FILLER_0_35_113
*1170 FILLER_0_35_125
*1171 FILLER_0_35_137
*1172 FILLER_0_35_149
*1173 FILLER_0_35_15
*1174 FILLER_0_35_161
*1175 FILLER_0_35_167
*1176 FILLER_0_35_169
*1177 FILLER_0_35_181
*1178 FILLER_0_35_203
*1179 FILLER_0_35_225
*1180 FILLER_0_35_27
*1181 FILLER_0_35_3
*1182 FILLER_0_35_335
*1183 FILLER_0_35_349
*1184 FILLER_0_35_39
*1185 FILLER_0_35_51
*1186 FILLER_0_35_55
*1187 FILLER_0_35_57
*1188 FILLER_0_35_69
*1189 FILLER_0_35_81
*1190 FILLER_0_35_93
*1191 FILLER_0_36_109
*1192 FILLER_0_36_121
*1193 FILLER_0_36_133
*1194 FILLER_0_36_139
*1195 FILLER_0_36_141
*1196 FILLER_0_36_15
*1197 FILLER_0_36_153
*1198 FILLER_0_36_165
*1199 FILLER_0_36_173
*1200 FILLER_0_36_209
*1201 FILLER_0_36_27
*1202 FILLER_0_36_29
*1203 FILLER_0_36_3
*1204 FILLER_0_36_307
*1205 FILLER_0_36_350
*1206 FILLER_0_36_41
*1207 FILLER_0_36_53
*1208 FILLER_0_36_65
*1209 FILLER_0_36_77
*1210 FILLER_0_36_83
*1211 FILLER_0_36_85
*1212 FILLER_0_36_97
*1213 FILLER_0_37_105
*1214 FILLER_0_37_111
*1215 FILLER_0_37_113
*1216 FILLER_0_37_125
*1217 FILLER_0_37_137
*1218 FILLER_0_37_149
*1219 FILLER_0_37_15
*1220 FILLER_0_37_161
*1221 FILLER_0_37_167
*1222 FILLER_0_37_187
*1223 FILLER_0_37_191
*1224 FILLER_0_37_202
*1225 FILLER_0_37_214
*1226 FILLER_0_37_225
*1227 FILLER_0_37_247
*1228 FILLER_0_37_268
*1229 FILLER_0_37_27
*1230 FILLER_0_37_279
*1231 FILLER_0_37_3
*1232 FILLER_0_37_304
*1233 FILLER_0_37_39
*1234 FILLER_0_37_51
*1235 FILLER_0_37_55
*1236 FILLER_0_37_57
*1237 FILLER_0_37_69
*1238 FILLER_0_37_81
*1239 FILLER_0_37_93
*1240 FILLER_0_38_102
*1241 FILLER_0_38_106
*1242 FILLER_0_38_110
*1243 FILLER_0_38_113
*1244 FILLER_0_38_118
*1245 FILLER_0_38_122
*1246 FILLER_0_38_126
*1247 FILLER_0_38_130
*1248 FILLER_0_38_134
*1249 FILLER_0_38_14
*1250 FILLER_0_38_144
*1251 FILLER_0_38_150
*1252 FILLER_0_38_154
*1253 FILLER_0_38_158
*1254 FILLER_0_38_166
*1255 FILLER_0_38_169
*1256 FILLER_0_38_174
*1257 FILLER_0_38_18
*1258 FILLER_0_38_189
*1259 FILLER_0_38_200
*1260 FILLER_0_38_22
*1261 FILLER_0_38_253
*1262 FILLER_0_38_260
*1263 FILLER_0_38_287
*1264 FILLER_0_38_3
*1265 FILLER_0_38_32
*1266 FILLER_0_38_346
*1267 FILLER_0_38_38
*1268 FILLER_0_38_42
*1269 FILLER_0_38_46
*1270 FILLER_0_38_50
*1271 FILLER_0_38_54
*1272 FILLER_0_38_57
*1273 FILLER_0_38_62
*1274 FILLER_0_38_66
*1275 FILLER_0_38_70
*1276 FILLER_0_38_74
*1277 FILLER_0_38_78
*1278 FILLER_0_38_88
*1279 FILLER_0_38_94
*1280 FILLER_0_38_98
*1281 FILLER_0_3_105
*1282 FILLER_0_3_111
*1283 FILLER_0_3_113
*1284 FILLER_0_3_125
*1285 FILLER_0_3_137
*1286 FILLER_0_3_149
*1287 FILLER_0_3_15
*1288 FILLER_0_3_161
*1289 FILLER_0_3_167
*1290 FILLER_0_3_169
*1291 FILLER_0_3_181
*1292 FILLER_0_3_193
*1293 FILLER_0_3_205
*1294 FILLER_0_3_217
*1295 FILLER_0_3_223
*1296 FILLER_0_3_225
*1297 FILLER_0_3_237
*1298 FILLER_0_3_249
*1299 FILLER_0_3_261
*1300 FILLER_0_3_27
*1301 FILLER_0_3_273
*1302 FILLER_0_3_279
*1303 FILLER_0_3_281
*1304 FILLER_0_3_293
*1305 FILLER_0_3_3
*1306 FILLER_0_3_305
*1307 FILLER_0_3_317
*1308 FILLER_0_3_329
*1309 FILLER_0_3_335