*SPEF "ieee 1481-1999"
*DESIGN "tt_um_wokwi_370690644715216897"
*DATE "11:11:11 Fri 11 11, 1111"
*VENDOR "OpenRCX"
*PROGRAM "Parallel Extraction"
*VERSION "1.0"
*DESIGN_FLOW "NAME_SCOPE LOCAL" "PIN_CAP NONE"
*DIVIDER /
*DELIMITER :
*BUS_DELIMITER []
*T_UNIT 1 NS
*C_UNIT 1 PF
*R_UNIT 1 OHM
*L_UNIT 1 HENRY

*NAME_MAP
*3 clk
*4 ena
*5 rst_n
*6 ui_in[0]
*7 ui_in[1]
*8 ui_in[2]
*9 ui_in[3]
*10 ui_in[4]
*11 ui_in[5]
*12 ui_in[6]
*13 ui_in[7]
*14 uio_in[0]
*15 uio_in[1]
*16 uio_in[2]
*17 uio_in[3]
*18 uio_in[4]
*19 uio_in[5]
*20 uio_in[6]
*21 uio_in[7]
*22 net6
*23 net7
*24 net8
*25 net9
*26 net10
*27 net11
*28 net12
*29 net13
*30 net14
*31 net15
*32 net16
*33 net17
*34 net18
*35 net19
*36 net20
*37 net21
*38 uo_out[0]
*39 net22
*40 net23
*41 uo_out[3]
*42 net24
*43 uo_out[5]
*44 uo_out[6]
*45 net25
*46 _00_
*47 _01_
*48 _02_
*49 and4\.a
*50 and5\.out
*51 and6\.out
*52 clknet_0_and5\.out
*53 clknet_1_0__leaf_and5\.out
*54 clknet_1_1__leaf_and5\.out
*55 flop2\.d
*56 flop2\.q
*57 flop3\.d
*58 net1
*59 net2
*60 net3
*61 net4
*62 net5
*63 FILLER_0_0_109
*64 FILLER_0_0_113
*65 FILLER_0_0_125
*66 FILLER_0_0_137
*67 FILLER_0_0_141
*68 FILLER_0_0_15
*69 FILLER_0_0_153
*70 FILLER_0_0_165
*71 FILLER_0_0_169
*72 FILLER_0_0_181
*73 FILLER_0_0_193
*74 FILLER_0_0_197
*75 FILLER_0_0_209
*76 FILLER_0_0_221
*77 FILLER_0_0_225
*78 FILLER_0_0_237
*79 FILLER_0_0_249
*80 FILLER_0_0_253
*81 FILLER_0_0_265
*82 FILLER_0_0_27
*83 FILLER_0_0_277
*84 FILLER_0_0_281
*85 FILLER_0_0_29
*86 FILLER_0_0_293
*87 FILLER_0_0_3
*88 FILLER_0_0_305
*89 FILLER_0_0_309
*90 FILLER_0_0_321
*91 FILLER_0_0_333
*92 FILLER_0_0_337
*93 FILLER_0_0_349
*94 FILLER_0_0_41
*95 FILLER_0_0_53
*96 FILLER_0_0_57
*97 FILLER_0_0_69
*98 FILLER_0_0_81
*99 FILLER_0_0_85
*100 FILLER_0_0_97
*101 FILLER_0_10_109
*102 FILLER_0_10_121
*103 FILLER_0_10_133
*104 FILLER_0_10_139
*105 FILLER_0_10_141
*106 FILLER_0_10_15
*107 FILLER_0_10_153
*108 FILLER_0_10_165
*109 FILLER_0_10_177
*110 FILLER_0_10_189
*111 FILLER_0_10_195
*112 FILLER_0_10_197
*113 FILLER_0_10_209
*114 FILLER_0_10_221
*115 FILLER_0_10_233
*116 FILLER_0_10_245
*117 FILLER_0_10_251
*118 FILLER_0_10_253
*119 FILLER_0_10_265
*120 FILLER_0_10_27
*121 FILLER_0_10_277
*122 FILLER_0_10_289
*123 FILLER_0_10_29
*124 FILLER_0_10_3
*125 FILLER_0_10_301
*126 FILLER_0_10_307
*127 FILLER_0_10_309
*128 FILLER_0_10_321
*129 FILLER_0_10_333
*130 FILLER_0_10_345
*131 FILLER_0_10_41
*132 FILLER_0_10_53
*133 FILLER_0_10_65
*134 FILLER_0_10_77
*135 FILLER_0_10_83
*136 FILLER_0_10_85
*137 FILLER_0_10_97
*138 FILLER_0_11_105
*139 FILLER_0_11_111
*140 FILLER_0_11_113
*141 FILLER_0_11_125
*142 FILLER_0_11_137
*143 FILLER_0_11_149
*144 FILLER_0_11_15
*145 FILLER_0_11_161
*146 FILLER_0_11_167
*147 FILLER_0_11_169
*148 FILLER_0_11_181
*149 FILLER_0_11_193
*150 FILLER_0_11_205
*151 FILLER_0_11_217
*152 FILLER_0_11_223
*153 FILLER_0_11_225
*154 FILLER_0_11_237
*155 FILLER_0_11_249
*156 FILLER_0_11_261
*157 FILLER_0_11_27
*158 FILLER_0_11_273
*159 FILLER_0_11_279
*160 FILLER_0_11_281
*161 FILLER_0_11_293
*162 FILLER_0_11_3
*163 FILLER_0_11_305
*164 FILLER_0_11_317
*165 FILLER_0_11_329
*166 FILLER_0_11_335
*167 FILLER_0_11_337
*168 FILLER_0_11_349
*169 FILLER_0_11_39
*170 FILLER_0_11_51
*171 FILLER_0_11_55
*172 FILLER_0_11_57
*173 FILLER_0_11_69
*174 FILLER_0_11_81
*175 FILLER_0_11_93
*176 FILLER_0_12_109
*177 FILLER_0_12_121
*178 FILLER_0_12_133
*179 FILLER_0_12_139
*180 FILLER_0_12_141
*181 FILLER_0_12_15
*182 FILLER_0_12_153
*183 FILLER_0_12_165
*184 FILLER_0_12_177
*185 FILLER_0_12_189
*186 FILLER_0_12_195
*187 FILLER_0_12_197
*188 FILLER_0_12_209
*189 FILLER_0_12_221
*190 FILLER_0_12_233
*191 FILLER_0_12_245
*192 FILLER_0_12_251
*193 FILLER_0_12_253
*194 FILLER_0_12_265
*195 FILLER_0_12_27
*196 FILLER_0_12_277
*197 FILLER_0_12_289
*198 FILLER_0_12_29
*199 FILLER_0_12_3
*200 FILLER_0_12_301
*201 FILLER_0_12_307
*202 FILLER_0_12_309
*203 FILLER_0_12_321
*204 FILLER_0_12_333
*205 FILLER_0_12_345
*206 FILLER_0_12_41
*207 FILLER_0_12_53
*208 FILLER_0_12_65
*209 FILLER_0_12_77
*210 FILLER_0_12_83
*211 FILLER_0_12_85
*212 FILLER_0_12_97
*213 FILLER_0_13_105
*214 FILLER_0_13_111
*215 FILLER_0_13_113
*216 FILLER_0_13_125
*217 FILLER_0_13_137
*218 FILLER_0_13_149
*219 FILLER_0_13_15
*220 FILLER_0_13_161
*221 FILLER_0_13_167
*222 FILLER_0_13_169
*223 FILLER_0_13_181
*224 FILLER_0_13_193
*225 FILLER_0_13_205
*226 FILLER_0_13_217
*227 FILLER_0_13_223
*228 FILLER_0_13_225
*229 FILLER_0_13_237
*230 FILLER_0_13_249
*231 FILLER_0_13_261
*232 FILLER_0_13_27
*233 FILLER_0_13_273
*234 FILLER_0_13_279
*235 FILLER_0_13_281
*236 FILLER_0_13_293
*237 FILLER_0_13_3
*238 FILLER_0_13_305
*239 FILLER_0_13_317
*240 FILLER_0_13_329
*241 FILLER_0_13_335
*242 FILLER_0_13_337
*243 FILLER_0_13_349
*244 FILLER_0_13_39
*245 FILLER_0_13_51
*246 FILLER_0_13_55
*247 FILLER_0_13_57
*248 FILLER_0_13_69
*249 FILLER_0_13_81
*250 FILLER_0_13_93
*251 FILLER_0_14_109
*252 FILLER_0_14_121
*253 FILLER_0_14_133
*254 FILLER_0_14_139
*255 FILLER_0_14_141
*256 FILLER_0_14_15
*257 FILLER_0_14_153
*258 FILLER_0_14_165
*259 FILLER_0_14_177
*260 FILLER_0_14_189
*261 FILLER_0_14_195
*262 FILLER_0_14_197
*263 FILLER_0_14_209
*264 FILLER_0_14_221
*265 FILLER_0_14_233
*266 FILLER_0_14_245
*267 FILLER_0_14_251
*268 FILLER_0_14_253
*269 FILLER_0_14_265
*270 FILLER_0_14_27
*271 FILLER_0_14_277
*272 FILLER_0_14_289
*273 FILLER_0_14_29
*274 FILLER_0_14_3
*275 FILLER_0_14_301
*276 FILLER_0_14_307
*277 FILLER_0_14_309
*278 FILLER_0_14_321
*279 FILLER_0_14_333
*280 FILLER_0_14_345
*281 FILLER_0_14_41
*282 FILLER_0_14_53
*283 FILLER_0_14_65
*284 FILLER_0_14_77
*285 FILLER_0_14_83
*286 FILLER_0_14_85
*287 FILLER_0_14_97
*288 FILLER_0_15_105
*289 FILLER_0_15_111
*290 FILLER_0_15_113
*291 FILLER_0_15_125
*292 FILLER_0_15_137
*293 FILLER_0_15_149
*294 FILLER_0_15_15
*295 FILLER_0_15_161
*296 FILLER_0_15_167
*297 FILLER_0_15_169
*298 FILLER_0_15_181
*299 FILLER_0_15_193
*300 FILLER_0_15_205
*301 FILLER_0_15_217
*302 FILLER_0_15_223
*303 FILLER_0_15_225
*304 FILLER_0_15_237
*305 FILLER_0_15_249
*306 FILLER_0_15_261
*307 FILLER_0_15_27
*308 FILLER_0_15_273
*309 FILLER_0_15_279
*310 FILLER_0_15_281
*311 FILLER_0_15_293
*312 FILLER_0_15_3
*313 FILLER_0_15_305
*314 FILLER_0_15_317
*315 FILLER_0_15_329
*316 FILLER_0_15_335
*317 FILLER_0_15_337
*318 FILLER_0_15_349
*319 FILLER_0_15_39
*320 FILLER_0_15_51
*321 FILLER_0_15_55
*322 FILLER_0_15_57
*323 FILLER_0_15_69
*324 FILLER_0_15_81
*325 FILLER_0_15_93
*326 FILLER_0_16_109
*327 FILLER_0_16_121
*328 FILLER_0_16_133
*329 FILLER_0_16_139
*330 FILLER_0_16_141
*331 FILLER_0_16_15
*332 FILLER_0_16_153
*333 FILLER_0_16_165
*334 FILLER_0_16_177
*335 FILLER_0_16_189
*336 FILLER_0_16_195
*337 FILLER_0_16_197
*338 FILLER_0_16_209
*339 FILLER_0_16_221
*340 FILLER_0_16_233
*341 FILLER_0_16_245
*342 FILLER_0_16_251
*343 FILLER_0_16_253
*344 FILLER_0_16_265
*345 FILLER_0_16_27
*346 FILLER_0_16_277
*347 FILLER_0_16_289
*348 FILLER_0_16_29
*349 FILLER_0_16_3
*350 FILLER_0_16_301
*351 FILLER_0_16_307
*352 FILLER_0_16_309
*353 FILLER_0_16_321
*354 FILLER_0_16_333
*355 FILLER_0_16_345
*356 FILLER_0_16_41
*357 FILLER_0_16_53
*358 FILLER_0_16_65
*359 FILLER_0_16_77
*360 FILLER_0_16_83
*361 FILLER_0_16_85
*362 FILLER_0_16_97
*363 FILLER_0_17_105
*364 FILLER_0_17_111
*365 FILLER_0_17_113
*366 FILLER_0_17_125
*367 FILLER_0_17_137
*368 FILLER_0_17_149
*369 FILLER_0_17_15
*370 FILLER_0_17_161
*371 FILLER_0_17_167
*372 FILLER_0_17_169
*373 FILLER_0_17_181
*374 FILLER_0_17_193
*375 FILLER_0_17_205
*376 FILLER_0_17_217
*377 FILLER_0_17_223
*378 FILLER_0_17_225
*379 FILLER_0_17_237
*380 FILLER_0_17_249
*381 FILLER_0_17_261
*382 FILLER_0_17_27
*383 FILLER_0_17_273
*384 FILLER_0_17_279
*385 FILLER_0_17_281
*386 FILLER_0_17_293
*387 FILLER_0_17_3
*388 FILLER_0_17_305
*389 FILLER_0_17_317
*390 FILLER_0_17_329
*391 FILLER_0_17_335
*392 FILLER_0_17_337
*393 FILLER_0_17_349
*394 FILLER_0_17_39
*395 FILLER_0_17_51
*396 FILLER_0_17_55
*397 FILLER_0_17_57
*398 FILLER_0_17_69
*399 FILLER_0_17_81
*400 FILLER_0_17_93
*401 FILLER_0_18_109
*402 FILLER_0_18_121
*403 FILLER_0_18_133
*404 FILLER_0_18_139
*405 FILLER_0_18_141
*406 FILLER_0_18_15
*407 FILLER_0_18_153
*408 FILLER_0_18_165
*409 FILLER_0_18_177
*410 FILLER_0_18_189
*411 FILLER_0_18_195
*412 FILLER_0_18_197
*413 FILLER_0_18_209
*414 FILLER_0_18_221
*415 FILLER_0_18_233
*416 FILLER_0_18_245
*417 FILLER_0_18_251
*418 FILLER_0_18_253
*419 FILLER_0_18_265
*420 FILLER_0_18_27
*421 FILLER_0_18_277
*422 FILLER_0_18_289
*423 FILLER_0_18_29
*424 FILLER_0_18_3
*425 FILLER_0_18_301
*426 FILLER_0_18_307
*427 FILLER_0_18_309
*428 FILLER_0_18_321
*429 FILLER_0_18_333
*430 FILLER_0_18_345
*431 FILLER_0_18_41
*432 FILLER_0_18_53
*433 FILLER_0_18_65
*434 FILLER_0_18_77
*435 FILLER_0_18_83
*436 FILLER_0_18_85
*437 FILLER_0_18_97
*438 FILLER_0_19_105
*439 FILLER_0_19_111
*440 FILLER_0_19_113
*441 FILLER_0_19_125
*442 FILLER_0_19_137
*443 FILLER_0_19_149
*444 FILLER_0_19_15
*445 FILLER_0_19_161
*446 FILLER_0_19_167
*447 FILLER_0_19_169
*448 FILLER_0_19_181
*449 FILLER_0_19_193
*450 FILLER_0_19_205
*451 FILLER_0_19_217
*452 FILLER_0_19_223
*453 FILLER_0_19_225
*454 FILLER_0_19_237
*455 FILLER_0_19_249
*456 FILLER_0_19_261
*457 FILLER_0_19_27
*458 FILLER_0_19_273
*459 FILLER_0_19_279
*460 FILLER_0_19_281
*461 FILLER_0_19_293
*462 FILLER_0_19_3
*463 FILLER_0_19_305
*464 FILLER_0_19_317
*465 FILLER_0_19_329
*466 FILLER_0_19_335
*467 FILLER_0_19_337
*468 FILLER_0_19_349
*469 FILLER_0_19_39
*470 FILLER_0_19_51
*471 FILLER_0_19_55
*472 FILLER_0_19_57
*473 FILLER_0_19_69
*474 FILLER_0_19_81
*475 FILLER_0_19_93
*476 FILLER_0_1_105
*477 FILLER_0_1_111
*478 FILLER_0_1_113
*479 FILLER_0_1_125
*480 FILLER_0_1_137
*481 FILLER_0_1_149
*482 FILLER_0_1_15
*483 FILLER_0_1_161
*484 FILLER_0_1_167
*485 FILLER_0_1_169
*486 FILLER_0_1_181
*487 FILLER_0_1_193
*488 FILLER_0_1_205
*489 FILLER_0_1_217
*490 FILLER_0_1_223
*491 FILLER_0_1_225
*492 FILLER_0_1_237
*493 FILLER_0_1_249
*494 FILLER_0_1_261
*495 FILLER_0_1_27
*496 FILLER_0_1_273
*497 FILLER_0_1_279
*498 FILLER_0_1_281
*499 FILLER_0_1_293
*500 FILLER_0_1_3
*501 FILLER_0_1_305
*502 FILLER_0_1_317
*503 FILLER_0_1_329
*504 FILLER_0_1_335
*505 FILLER_0_1_337
*506 FILLER_0_1_349
*507 FILLER_0_1_39
*508 FILLER_0_1_51
*509 FILLER_0_1_55
*510 FILLER_0_1_57
*511 FILLER_0_1_69
*512 FILLER_0_1_81
*513 FILLER_0_1_93
*514 FILLER_0_20_109
*515 FILLER_0_20_121
*516 FILLER_0_20_133
*517 FILLER_0_20_139
*518 FILLER_0_20_141
*519 FILLER_0_20_15
*520 FILLER_0_20_153
*521 FILLER_0_20_165
*522 FILLER_0_20_177
*523 FILLER_0_20_189
*524 FILLER_0_20_195
*525 FILLER_0_20_197
*526 FILLER_0_20_209
*527 FILLER_0_20_221
*528 FILLER_0_20_233
*529 FILLER_0_20_245
*530 FILLER_0_20_251
*531 FILLER_0_20_253
*532 FILLER_0_20_265
*533 FILLER_0_20_27
*534 FILLER_0_20_277
*535 FILLER_0_20_289
*536 FILLER_0_20_29
*537 FILLER_0_20_3
*538 FILLER_0_20_301
*539 FILLER_0_20_307
*540 FILLER_0_20_309
*541 FILLER_0_20_321
*542 FILLER_0_20_333
*543 FILLER_0_20_345
*544 FILLER_0_20_41
*545 FILLER_0_20_53
*546 FILLER_0_20_65
*547 FILLER_0_20_77
*548 FILLER_0_20_83
*549 FILLER_0_20_85
*550 FILLER_0_20_97
*551 FILLER_0_21_105
*552 FILLER_0_21_111
*553 FILLER_0_21_113
*554 FILLER_0_21_125
*555 FILLER_0_21_137
*556 FILLER_0_21_149
*557 FILLER_0_21_15
*558 FILLER_0_21_161
*559 FILLER_0_21_167
*560 FILLER_0_21_169
*561 FILLER_0_21_181
*562 FILLER_0_21_193
*563 FILLER_0_21_205
*564 FILLER_0_21_217
*565 FILLER_0_21_223
*566 FILLER_0_21_225
*567 FILLER_0_21_237
*568 FILLER_0_21_249
*569 FILLER_0_21_261
*570 FILLER_0_21_27
*571 FILLER_0_21_273
*572 FILLER_0_21_279
*573 FILLER_0_21_281
*574 FILLER_0_21_293
*575 FILLER_0_21_3
*576 FILLER_0_21_305
*577 FILLER_0_21_317
*578 FILLER_0_21_329
*579 FILLER_0_21_335
*580 FILLER_0_21_337
*581 FILLER_0_21_349
*582 FILLER_0_21_39
*583 FILLER_0_21_51
*584 FILLER_0_21_55
*585 FILLER_0_21_57
*586 FILLER_0_21_69
*587 FILLER_0_21_81
*588 FILLER_0_21_93
*589 FILLER_0_22_109
*590 FILLER_0_22_121
*591 FILLER_0_22_133
*592 FILLER_0_22_139
*593 FILLER_0_22_141
*594 FILLER_0_22_15
*595 FILLER_0_22_153
*596 FILLER_0_22_165
*597 FILLER_0_22_177
*598 FILLER_0_22_189
*599 FILLER_0_22_195
*600 FILLER_0_22_197
*601 FILLER_0_22_209
*602 FILLER_0_22_221
*603 FILLER_0_22_233
*604 FILLER_0_22_245
*605 FILLER_0_22_251
*606 FILLER_0_22_253
*607 FILLER_0_22_265
*608 FILLER_0_22_27
*609 FILLER_0_22_277
*610 FILLER_0_22_289
*611 FILLER_0_22_29
*612 FILLER_0_22_3
*613 FILLER_0_22_301
*614 FILLER_0_22_307
*615 FILLER_0_22_309
*616 FILLER_0_22_321
*617 FILLER_0_22_333
*618 FILLER_0_22_345
*619 FILLER_0_22_41
*620 FILLER_0_22_53
*621 FILLER_0_22_65
*622 FILLER_0_22_77
*623 FILLER_0_22_83
*624 FILLER_0_22_85
*625 FILLER_0_22_97
*626 FILLER_0_23_105
*627 FILLER_0_23_111
*628 FILLER_0_23_113
*629 FILLER_0_23_125
*630 FILLER_0_23_137
*631 FILLER_0_23_149
*632 FILLER_0_23_15
*633 FILLER_0_23_161
*634 FILLER_0_23_167
*635 FILLER_0_23_169
*636 FILLER_0_23_181
*637 FILLER_0_23_193
*638 FILLER_0_23_205
*639 FILLER_0_23_217
*640 FILLER_0_23_223
*641 FILLER_0_23_225
*642 FILLER_0_23_237
*643 FILLER_0_23_249
*644 FILLER_0_23_261
*645 FILLER_0_23_27
*646 FILLER_0_23_273
*647 FILLER_0_23_279
*648 FILLER_0_23_281
*649 FILLER_0_23_293
*650 FILLER_0_23_3
*651 FILLER_0_23_305
*652 FILLER_0_23_317
*653 FILLER_0_23_329
*654 FILLER_0_23_335
*655 FILLER_0_23_337
*656 FILLER_0_23_349
*657 FILLER_0_23_39
*658 FILLER_0_23_51
*659 FILLER_0_23_55
*660 FILLER_0_23_57
*661 FILLER_0_23_69
*662 FILLER_0_23_81
*663 FILLER_0_23_93
*664 FILLER_0_24_109
*665 FILLER_0_24_121
*666 FILLER_0_24_133
*667 FILLER_0_24_139
*668 FILLER_0_24_141
*669 FILLER_0_24_15
*670 FILLER_0_24_153
*671 FILLER_0_24_165
*672 FILLER_0_24_177
*673 FILLER_0_24_189
*674 FILLER_0_24_195
*675 FILLER_0_24_197
*676 FILLER_0_24_209
*677 FILLER_0_24_221
*678 FILLER_0_24_233
*679 FILLER_0_24_245
*680 FILLER_0_24_251
*681 FILLER_0_24_253
*682 FILLER_0_24_265
*683 FILLER_0_24_27
*684 FILLER_0_24_277
*685 FILLER_0_24_289
*686 FILLER_0_24_29
*687 FILLER_0_24_3
*688 FILLER_0_24_301
*689 FILLER_0_24_307
*690 FILLER_0_24_309
*691 FILLER_0_24_321
*692 FILLER_0_24_333
*693 FILLER_0_24_345
*694 FILLER_0_24_41
*695 FILLER_0_24_53
*696 FILLER_0_24_65
*697 FILLER_0_24_77
*698 FILLER_0_24_83
*699 FILLER_0_24_85
*700 FILLER_0_24_97
*701 FILLER_0_25_105
*702 FILLER_0_25_111
*703 FILLER_0_25_113
*704 FILLER_0_25_125
*705 FILLER_0_25_137
*706 FILLER_0_25_149
*707 FILLER_0_25_15
*708 FILLER_0_25_161
*709 FILLER_0_25_167
*710 FILLER_0_25_169
*711 FILLER_0_25_181
*712 FILLER_0_25_193
*713 FILLER_0_25_205
*714 FILLER_0_25_217
*715 FILLER_0_25_223
*716 FILLER_0_25_225
*717 FILLER_0_25_237
*718 FILLER_0_25_249
*719 FILLER_0_25_261
*720 FILLER_0_25_27
*721 FILLER_0_25_273
*722 FILLER_0_25_279
*723 FILLER_0_25_281
*724 FILLER_0_25_293
*725 FILLER_0_25_3
*726 FILLER_0_25_305
*727 FILLER_0_25_317
*728 FILLER_0_25_329
*729 FILLER_0_25_335
*730 FILLER_0_25_337
*731 FILLER_0_25_349
*732 FILLER_0_25_39
*733 FILLER_0_25_51
*734 FILLER_0_25_55
*735 FILLER_0_25_57
*736 FILLER_0_25_69
*737 FILLER_0_25_81
*738 FILLER_0_25_93
*739 FILLER_0_26_109
*740 FILLER_0_26_121
*741 FILLER_0_26_133
*742 FILLER_0_26_139
*743 FILLER_0_26_141
*744 FILLER_0_26_15
*745 FILLER_0_26_153
*746 FILLER_0_26_165
*747 FILLER_0_26_177
*748 FILLER_0_26_189
*749 FILLER_0_26_195
*750 FILLER_0_26_197
*751 FILLER_0_26_209
*752 FILLER_0_26_221
*753 FILLER_0_26_233
*754 FILLER_0_26_245
*755 FILLER_0_26_251
*756 FILLER_0_26_253
*757 FILLER_0_26_265
*758 FILLER_0_26_27
*759 FILLER_0_26_277
*760 FILLER_0_26_289
*761 FILLER_0_26_29
*762 FILLER_0_26_3
*763 FILLER_0_26_301
*764 FILLER_0_26_307
*765 FILLER_0_26_309
*766 FILLER_0_26_321
*767 FILLER_0_26_333
*768 FILLER_0_26_345
*769 FILLER_0_26_41
*770 FILLER_0_26_53
*771 FILLER_0_26_65
*772 FILLER_0_26_77
*773 FILLER_0_26_83
*774 FILLER_0_26_85
*775 FILLER_0_26_97
*776 FILLER_0_27_105
*777 FILLER_0_27_111
*778 FILLER_0_27_113
*779 FILLER_0_27_125
*780 FILLER_0_27_137
*781 FILLER_0_27_149
*782 FILLER_0_27_15
*783 FILLER_0_27_161
*784 FILLER_0_27_167
*785 FILLER_0_27_169
*786 FILLER_0_27_181
*787 FILLER_0_27_193
*788 FILLER_0_27_205
*789 FILLER_0_27_217
*790 FILLER_0_27_223
*791 FILLER_0_27_225
*792 FILLER_0_27_237
*793 FILLER_0_27_249
*794 FILLER_0_27_261
*795 FILLER_0_27_27
*796 FILLER_0_27_273
*797 FILLER_0_27_279
*798 FILLER_0_27_281
*799 FILLER_0_27_293
*800 FILLER_0_27_3
*801 FILLER_0_27_305
*802 FILLER_0_27_317
*803 FILLER_0_27_329
*804 FILLER_0_27_335
*805 FILLER_0_27_337
*806 FILLER_0_27_349
*807 FILLER_0_27_39
*808 FILLER_0_27_51
*809 FILLER_0_27_55
*810 FILLER_0_27_57
*811 FILLER_0_27_69
*812 FILLER_0_27_81
*813 FILLER_0_27_93
*814 FILLER_0_28_109
*815 FILLER_0_28_121
*816 FILLER_0_28_133
*817 FILLER_0_28_139
*818 FILLER_0_28_141
*819 FILLER_0_28_15
*820 FILLER_0_28_153
*821 FILLER_0_28_165
*822 FILLER_0_28_177
*823 FILLER_0_28_189
*824 FILLER_0_28_195
*825 FILLER_0_28_197
*826 FILLER_0_28_209
*827 FILLER_0_28_221
*828 FILLER_0_28_233
*829 FILLER_0_28_245
*830 FILLER_0_28_251
*831 FILLER_0_28_253
*832 FILLER_0_28_265
*833 FILLER_0_28_27
*834 FILLER_0_28_277
*835 FILLER_0_28_289
*836 FILLER_0_28_29
*837 FILLER_0_28_3
*838 FILLER_0_28_301
*839 FILLER_0_28_307
*840 FILLER_0_28_309
*841 FILLER_0_28_321
*842 FILLER_0_28_333
*843 FILLER_0_28_345
*844 FILLER_0_28_41
*845 FILLER_0_28_53
*846 FILLER_0_28_65
*847 FILLER_0_28_77
*848 FILLER_0_28_83
*849 FILLER_0_28_85
*850 FILLER_0_28_97
*851 FILLER_0_29_105
*852 FILLER_0_29_111
*853 FILLER_0_29_113
*854 FILLER_0_29_125
*855 FILLER_0_29_137
*856 FILLER_0_29_149
*857 FILLER_0_29_15
*858 FILLER_0_29_161
*859 FILLER_0_29_167
*860 FILLER_0_29_169
*861 FILLER_0_29_181
*862 FILLER_0_29_193
*863 FILLER_0_29_205
*864 FILLER_0_29_217
*865 FILLER_0_29_223
*866 FILLER_0_29_225
*867 FILLER_0_29_237
*868 FILLER_0_29_249
*869 FILLER_0_29_261
*870 FILLER_0_29_27
*871 FILLER_0_29_273
*872 FILLER_0_29_279
*873 FILLER_0_29_281
*874 FILLER_0_29_293
*875 FILLER_0_29_3
*876 FILLER_0_29_305
*877 FILLER_0_29_317
*878 FILLER_0_29_329
*879 FILLER_0_29_335
*880 FILLER_0_29_337
*881 FILLER_0_29_349
*882 FILLER_0_29_39
*883 FILLER_0_29_51
*884 FILLER_0_29_55
*885 FILLER_0_29_57
*886 FILLER_0_29_69
*887 FILLER_0_29_81
*888 FILLER_0_29_93
*889 FILLER_0_2_109
*890 FILLER_0_2_121
*891 FILLER_0_2_133
*892 FILLER_0_2_139
*893 FILLER_0_2_141
*894 FILLER_0_2_15
*895 FILLER_0_2_153
*896 FILLER_0_2_165
*897 FILLER_0_2_177
*898 FILLER_0_2_189
*899 FILLER_0_2_195
*900 FILLER_0_2_197
*901 FILLER_0_2_209
*902 FILLER_0_2_221
*903 FILLER_0_2_233
*904 FILLER_0_2_245
*905 FILLER_0_2_251
*906 FILLER_0_2_253
*907 FILLER_0_2_265
*908 FILLER_0_2_27
*909 FILLER_0_2_277
*910 FILLER_0_2_289
*911 FILLER_0_2_29
*912 FILLER_0_2_3
*913 FILLER_0_2_301
*914 FILLER_0_2_307
*915 FILLER_0_2_309
*916 FILLER_0_2_321
*917 FILLER_0_2_333
*918 FILLER_0_2_345
*919 FILLER_0_2_41
*920 FILLER_0_2_53
*921 FILLER_0_2_65
*922 FILLER_0_2_77
*923 FILLER_0_2_83
*924 FILLER_0_2_85
*925 FILLER_0_2_97
*926 FILLER_0_30_109
*927 FILLER_0_30_121
*928 FILLER_0_30_133
*929 FILLER_0_30_139
*930 FILLER_0_30_141
*931 FILLER_0_30_15
*932 FILLER_0_30_153
*933 FILLER_0_30_165
*934 FILLER_0_30_177
*935 FILLER_0_30_189
*936 FILLER_0_30_195
*937 FILLER_0_30_197
*938 FILLER_0_30_209
*939 FILLER_0_30_221
*940 FILLER_0_30_233
*941 FILLER_0_30_245
*942 FILLER_0_30_251
*943 FILLER_0_30_253
*944 FILLER_0_30_265
*945 FILLER_0_30_27
*946 FILLER_0_30_277
*947 FILLER_0_30_289
*948 FILLER_0_30_29
*949 FILLER_0_30_3
*950 FILLER_0_30_301
*951 FILLER_0_30_307
*952 FILLER_0_30_309
*953 FILLER_0_30_321
*954 FILLER_0_30_333
*955 FILLER_0_30_345
*956 FILLER_0_30_41
*957 FILLER_0_30_53
*958 FILLER_0_30_65
*959 FILLER_0_30_77
*960 FILLER_0_30_83
*961 FILLER_0_30_85
*962 FILLER_0_30_97
*963 FILLER_0_31_105
*964 FILLER_0_31_111
*965 FILLER_0_31_113
*966 FILLER_0_31_125
*967 FILLER_0_31_137
*968 FILLER_0_31_149
*969 FILLER_0_31_15
*970 FILLER_0_31_161
*971 FILLER_0_31_167
*972 FILLER_0_31_169
*973 FILLER_0_31_181
*974 FILLER_0_31_193
*975 FILLER_0_31_205
*976 FILLER_0_31_217
*977 FILLER_0_31_223
*978 FILLER_0_31_225
*979 FILLER_0_31_237
*980 FILLER_0_31_249
*981 FILLER_0_31_261
*982 FILLER_0_31_27
*983 FILLER_0_31_273
*984 FILLER_0_31_279
*985 FILLER_0_31_281
*986 FILLER_0_31_293
*987 FILLER_0_31_3
*988 FILLER_0_31_305
*989 FILLER_0_31_317
*990 FILLER_0_31_329
*991 FILLER_0_31_335
*992 FILLER_0_31_337
*993 FILLER_0_31_349
*994 FILLER_0_31_39
*995 FILLER_0_31_51
*996 FILLER_0_31_55
*997 FILLER_0_31_57
*998 FILLER_0_31_69
*999 FILLER_0_31_81
*1000 FILLER_0_31_93
*1001 FILLER_0_32_109
*1002 FILLER_0_32_121
*1003 FILLER_0_32_133
*1004 FILLER_0_32_139
*1005 FILLER_0_32_141
*1006 FILLER_0_32_15
*1007 FILLER_0_32_153
*1008 FILLER_0_32_165
*1009 FILLER_0_32_177
*1010 FILLER_0_32_189
*1011 FILLER_0_32_195
*1012 FILLER_0_32_197
*1013 FILLER_0_32_209
*1014 FILLER_0_32_221
*1015 FILLER_0_32_233
*1016 FILLER_0_32_245
*1017 FILLER_0_32_251
*1018 FILLER_0_32_253
*1019 FILLER_0_32_265
*1020 FILLER_0_32_27
*1021 FILLER_0_32_277
*1022 FILLER_0_32_289
*1023 FILLER_0_32_29
*1024 FILLER_0_32_3
*1025 FILLER_0_32_301
*1026 FILLER_0_32_307
*1027 FILLER_0_32_309
*1028 FILLER_0_32_321
*1029 FILLER_0_32_333
*1030 FILLER_0_32_345
*1031 FILLER_0_32_41
*1032 FILLER_0_32_53
*1033 FILLER_0_32_65
*1034 FILLER_0_32_77
*1035 FILLER_0_32_83
*1036 FILLER_0_32_85
*1037 FILLER_0_32_97
*1038 FILLER_0_33_105
*1039 FILLER_0_33_111
*1040 FILLER_0_33_113
*1041 FILLER_0_33_125
*1042 FILLER_0_33_137
*1043 FILLER_0_33_149
*1044 FILLER_0_33_15
*1045 FILLER_0_33_161
*1046 FILLER_0_33_167
*1047 FILLER_0_33_169
*1048 FILLER_0_33_181
*1049 FILLER_0_33_193
*1050 FILLER_0_33_205
*1051 FILLER_0_33_217
*1052 FILLER_0_33_223
*1053 FILLER_0_33_225
*1054 FILLER_0_33_237
*1055 FILLER_0_33_249
*1056 FILLER_0_33_261
*1057 FILLER_0_33_27
*1058 FILLER_0_33_273
*1059 FILLER_0_33_279
*1060 FILLER_0_33_281
*1061 FILLER_0_33_293
*1062 FILLER_0_33_3
*1063 FILLER_0_33_305
*1064 FILLER_0_33_317
*1065 FILLER_0_33_329
*1066 FILLER_0_33_335
*1067 FILLER_0_33_337
*1068 FILLER_0_33_349
*1069 FILLER_0_33_39
*1070 FILLER_0_33_51
*1071 FILLER_0_33_55
*1072 FILLER_0_33_57
*1073 FILLER_0_33_69
*1074 FILLER_0_33_81
*1075 FILLER_0_33_93
*1076 FILLER_0_34_109
*1077 FILLER_0_34_121
*1078 FILLER_0_34_133
*1079 FILLER_0_34_139
*1080 FILLER_0_34_141
*1081 FILLER_0_34_15
*1082 FILLER_0_34_153
*1083 FILLER_0_34_165
*1084 FILLER_0_34_177
*1085 FILLER_0_34_189
*1086 FILLER_0_34_195
*1087 FILLER_0_34_197
*1088 FILLER_0_34_209
*1089 FILLER_0_34_221
*1090 FILLER_0_34_233
*1091 FILLER_0_34_245
*1092 FILLER_0_34_251
*1093 FILLER_0_34_253
*1094 FILLER_0_34_265
*1095 FILLER_0_34_27
*1096 FILLER_0_34_277
*1097 FILLER_0_34_289
*1098 FILLER_0_34_29
*1099 FILLER_0_34_3
*1100 FILLER_0_34_301
*1101 FILLER_0_34_307
*1102 FILLER_0_34_309
*1103 FILLER_0_34_321
*1104 FILLER_0_34_333
*1105 FILLER_0_34_345
*1106 FILLER_0_34_41
*1107 FILLER_0_34_53
*1108 FILLER_0_34_65
*1109 FILLER_0_34_77
*1110 FILLER_0_34_83
*1111 FILLER_0_34_85
*1112 FILLER_0_34_97
*1113 FILLER_0_35_105
*1114 FILLER_0_35_111
*1115 FILLER_0_35_113
*1116 FILLER_0_35_125
*1117 FILLER_0_35_137
*1118 FILLER_0_35_149
*1119 FILLER_0_35_15
*1120 FILLER_0_35_161
*1121 FILLER_0_35_167
*1122 FILLER_0_35_169
*1123 FILLER_0_35_181
*1124 FILLER_0_35_193
*1125 FILLER_0_35_205
*1126 FILLER_0_35_217
*1127 FILLER_0_35_223
*1128 FILLER_0_35_225
*1129 FILLER_0_35_237
*1130 FILLER_0_35_249
*1131 FILLER_0_35_261
*1132 FILLER_0_35_27
*1133 FILLER_0_35_273
*1134 FILLER_0_35_279
*1135 FILLER_0_35_281
*1136 FILLER_0_35_293
*1137 FILLER_0_35_3
*1138 FILLER_0_35_305
*1139 FILLER_0_35_317
*1140 FILLER_0_35_329
*1141 FILLER_0_35_335
*1142 FILLER_0_35_337
*1143 FILLER_0_35_349
*1144 FILLER_0_35_39
*1145 FILLER_0_35_51
*1146 FILLER_0_35_55
*1147 FILLER_0_35_57
*1148 FILLER_0_35_69
*1149 FILLER_0_35_81
*1150 FILLER_0_35_93
*1151 FILLER_0_36_109
*1152 FILLER_0_36_121
*1153 FILLER_0_36_133
*1154 FILLER_0_36_139
*1155 FILLER_0_36_141
*1156 FILLER_0_36_15
*1157 FILLER_0_36_153
*1158 FILLER_0_36_165
*1159 FILLER_0_36_177
*1160 FILLER_0_36_189
*1161 FILLER_0_36_195
*1162 FILLER_0_36_206
*1163 FILLER_0_36_218
*1164 FILLER_0_36_230
*1165 FILLER_0_36_242
*1166 FILLER_0_36_250
*1167 FILLER_0_36_253
*1168 FILLER_0_36_265
*1169 FILLER_0_36_27
*1170 FILLER_0_36_277
*1171 FILLER_0_36_289
*1172 FILLER_0_36_29
*1173 FILLER_0_36_3
*1174 FILLER_0_36_301
*1175 FILLER_0_36_307
*1176 FILLER_0_36_309
*1177 FILLER_0_36_321
*1178 FILLER_0_36_333
*1179 FILLER_0_36_345
*1180 FILLER_0_36_41
*1181 FILLER_0_36_53
*1182 FILLER_0_36_65
*1183 FILLER_0_36_77
*1184 FILLER_0_36_83
*1185 FILLER_0_36_85
*1186 FILLER_0_36_97
*1187 FILLER_0_37_105
*1188 FILLER_0_37_111
*1189 FILLER_0_37_113
*1190 FILLER_0_37_125
*1191 FILLER_0_37_133
*1192 FILLER_0_37_15
*1193 FILLER_0_37_155
*1194 FILLER_0_37_167
*1195 FILLER_0_37_169
*1196 FILLER_0_37_177
*1197 FILLER_0_37_182
*1198 FILLER_0_37_188
*1199 FILLER_0_37_218
*1200 FILLER_0_37_225
*1201 FILLER_0_37_237
*1202 FILLER_0_37_249
*1203 FILLER_0_37_261
*1204 FILLER_0_37_27
*1205 FILLER_0_37_273
*1206 FILLER_0_37_279
*1207 FILLER_0_37_281
*1208 FILLER_0_37_294
*1209 FILLER_0_37_3
*1210 FILLER_0_37_306
*1211 FILLER_0_37_318
*1212 FILLER_0_37_330
*1213 FILLER_0_37_337
*1214 FILLER_0_37_349
*1215 FILLER_0_37_39
*1216 FILLER_0_37_51
*1217 FILLER_0_37_55
*1218 FILLER_0_37_57
*1219 FILLER_0_37_69
*1220 FILLER_0_37_81
*1221 FILLER_0_37_93
*1222 FILLER_0_38_102
*1223 FILLER_0_38_106
*1224 FILLER_0_38_110
*1225 FILLER_0_38_113
*1226 FILLER_0_38_118
*1227 FILLER_0_38_122
*1228 FILLER_0_38_126
*1229 FILLER_0_38_130
*1230 FILLER_0_38_134
*1231 FILLER_0_38_14
*1232 FILLER_0_38_144
*1233 FILLER_0_38_156
*1234 FILLER_0_38_169
*1235 FILLER_0_38_18
*1236 FILLER_0_38_219
*1237 FILLER_0_38_22
*1238 FILLER_0_38_223
*1239 FILLER_0_38_228
*1240 FILLER_0_38_240
*1241 FILLER_0_38_253
*1242 FILLER_0_38_265
*1243 FILLER_0_38_297
*1244 FILLER_0_38_3
*1245 FILLER_0_38_302
*1246 FILLER_0_38_312
*1247 FILLER_0_38_32
*1248 FILLER_0_38_320
*1249 FILLER_0_38_326
*1250 FILLER_0_38_334
*1251 FILLER_0_38_337
*1252 FILLER_0_38_349
*1253 FILLER_0_38_38
*1254 FILLER_0_38_42
*1255 FILLER_0_38_46
*1256 FILLER_0_38_50
*1257 FILLER_0_38_54
*1258 FILLER_0_38_57
*1259 FILLER_0_38_62
*1260 FILLER_0_38_66
*1261 FILLER_0_38_70
*1262 FILLER_0_38_74
*1263 FILLER_0_38_78
*1264 FILLER_0_38_88
*1265 FILLER_0_38_94
*1266 FILLER_0_38_98
*1267 FILLER_0_3_105
*1268 FILLER_0_3_111
*1269 FILLER_0_3_113
*1270 FILLER_0_3_125
*1271 FILLER_0_3_137
*1272 FILLER_0_3_149
*1273 FILLER_0_3_15
*1274 FILLER_0_3_161
*1275 FILLER_0_3_167
*1276 FILLER_0_3_169
*1277 FILLER_0_3_181
*1278 FILLER_0_3_193
*1279 FILLER_0_3_205
*1280 FILLER_0_3_217
*1281 FILLER_0_3_223
*1282 FILLER_0_3_225
*1283 FILLER_0_3_237
*1284 FILLER_0_3_249
*1285 FILLER_0_3_261
*1286 FILLER_0_3_27
*1287 FILLER_0_3_273
*1288 FILLER_0_3_279
*1289 FILLER_0_3_281
*1290 FILLER_0_3_293
*1291 FILLER_0_3_3
*1292 FILLER_0_3_305
*1293 FILLER_0_3_317
*1294 FILLER_0_3_329
*1295 FILLER_0_3_335
*1296 FILLER_0_3_337
*1297 FILLER_0_3_349
*1298 FILLER_0_3_39
*1299 FILLER_0_3_51
*1300 FILLER_0_3_55
*1301 FILLER_0_3_57
*1302 FILLER_0_3_69
*1303 FILLER_0_3_81
*1304 FILLER_0_3_93
*1305 FILLER_0_4_109
*1306 FILLER_0_4_121
*1307 FILLER_0_4_133
*1308 FILLER_0_4_139
*1309 FILLER_0_4_141
*1310 FILLER_0_4_15
*1311 FILLER_0_4_153
*1312 FILLER_0_4_165
*1313 FILLER_0_4_177
*1314 FILLER_0_4_189
*1315 FILLER_0_4_195
*1316 FILLER_0_4_197
*1317 FILLER_0_4_209
*1318 FILLER_0_4_221
*1319 FILLER_0_4_233
*1320 FILLER_0_4_245
*1321 FILLER_0_4_251
*1322 FILLER_0_4_253
*1323 FILLER_0_4_265
*1324 FILLER_0_4_27
*1325 FILLER_0_4_277
*1326 FILLER_0_4_289
*1327 FILLER_0_4_29
*1328 FILLER_0_4_3
*1329 FILLER_0_4_301
*1330 FILLER_0_4_307
*1331 FILLER_0_4_309
*1332 FILLER_0_4_321
*1333 FILLER_0_4_333
*1334 FILLER_0_4_345
*1335 FILLER_0_4_41
*1336 FILLER_0_4_53
*1337 FILLER_0_4_65
*1338 FILLER_0_4_77
*1339 FILLER_0_4_83
*1340 FILLER_0_4_85
*1341 FILLER_0_4_97
*1342 FILLER_0_5_105
*1343 FILLER_0_5_111
*1344 FILLER_0_5_113
*1345 FILLER_0_5_125
*1346 FILLER_0_5_137
*1347 FILLER_0_5_149
*1348 FILLER_0_5_15
*1349 FILLER_0_5_161
*1350 FILLER_0_5_167
*1351 FILLER_0_5_169
*1352 FILLER_0_5_181
*1353 FILLER_0_5_193
*1354 FILLER_0_5_205
*1355 FILLER_0_5_217
*1356 FILLER_0_5_223
*1357 FILLER_0_5_225
*1358 FILLER_0_5_237
*1359 FILLER_0_5_249
*1360 FILLER_0_5_261
*1361 FILLER_0_5_27
*1362 FILLER_0_5_273
*1363 FILLER_0_5_279
*1364 FILLER_0_5_281
*1365 FILLER_0_5_293
*1366 FILLER_0_5_3
*1367 FILLER_0_5_305
*1368 FILLER_0_5_317
*1369 FILLER_0_5_329
*1370 FILLER_0_5_335
*1371 FILLER_0_5_337
*1372 FILLER_0_5_349
*1373 FILLER_0_5_39
*1374 FILLER_0_5_51
*1375 FILLER_0_5_55
*1376 FILLER_0_5_57
*1377 FILLER_0_5_69
*1378 FILLER_0_5_81
*1379 FILLER_0_5_93
*1380 FILLER_0_6_109
*1381 FILLER_0_6_121
*1382 FILLER_0_6_133
*1383 FILLER_0_6_139
*1384 FILLER_0_6_141
*1385 FILLER_0_6_15
*1386 FILLER_0_6_153
*1387 FILLER_0_6_165
*1388 FILLER_0_6_177
*1389 FILLER_0_6_189
*1390 FILLER_0_6_195
*1391 FILLER_0_6_197
*1392 FILLER_0_6_209
*1393 FILLER_0_6_221
*1394 FILLER_0_6_233
*1395 FILLER_0_6_245
*1396 FILLER_0_6_251
*1397 FILLER_0_6_253
*1398 FILLER_0_6_265
*1399 FILLER_0_6_27
*1400 FILLER_0_6_277
*1401 FILLER_0_6_289
*1402 FILLER_0_6_29
*1403 FILLER_0_6_3
*1404 FILLER_0_6_301
*1405 FILLER_0_6_307
*1406 FILLER_0_6_309
*1407 FILLER_0_6_321
*1408 FILLER_0_6_333
*1409 FILLER_0_6_345
*1410 FILLER_0_6_41
*1411 FILLER_0_6_53
*1412 FILLER_0_6_65
*1413 FILLER_0_6_77
*1414 FILLER_0_6_83
*1415 FILLER_0_6_85
*1416 FILLER_0_6_97
*1417 FILLER_0_7_105
*1418 FILLER_0_7_111
*1419 FILLER_0_7_113
*1420 FILLER_0_7_125
*1421 FILLER_0_7_137
*1422 FILLER_0_7_149
*1423 FILLER_0_7_15
*1424 FILLER_0_7_161
*1425 FILLER_0_7_167
*1426 FILLER_0_7_169
*1427 FILLER_0_7_181
*1428 FILLER_0_7_193
*1429 FILLER_0_7_205
*1430 FILLER_0_7_217
*1431 FILLER_0_7_223
*1432 FILLER_0_7_225
*1433 FILLER_0_7_237
*1434 FILLER_0_7_249
*1435 FILLER_0_7_261
*1436 FILLER_0_7_27
*1437 FILLER_0_7_273
*1438 FILLER_0_7_279
*1439 FILLER_0_7_281
*1440 FILLER_0_7_293
*1441 FILLER_0_7_3
*1442 FILLER_0_7_305
*1443 FILLER_0_7_317
*1444 FILLER_0_7_329
*1445 FILLER_0_7_335
*1446 FILLER_0_7_337
*1447 FILLER_0_7_349
*1448 FILLER_0_7_39
*1449 FILLER_0_7_51
*1450 FILLER_0_7_55
*1451 FILLER_0_7_57
*1452 FILLER_0_7_69
*1453 FILLER_0_7_81
*1454 FILLER_0_7_93
*1455 FILLER_0_8_109
*1456 FILLER_0_8_121