*SPEF "ieee 1481-1999"
*DESIGN "tt_um_uninorte"
*DATE "11:11:11 Fri 11 11, 1111"
*VENDOR "OpenRCX"
*PROGRAM "Parallel Extraction"
*VERSION "1.0"
*DESIGN_FLOW "NAME_SCOPE LOCAL" "PIN_CAP NONE"
*DIVIDER /
*DELIMITER :
*BUS_DELIMITER []
*T_UNIT 1 NS
*C_UNIT 1 PF
*R_UNIT 1 OHM
*L_UNIT 1 HENRY

*NAME_MAP
*3 clk
*4 ena
*5 rst_n
*6 ui_in[0]
*7 ui_in[1]
*8 ui_in[2]
*9 ui_in[3]
*10 ui_in[4]
*11 ui_in[5]
*12 ui_in[6]
*13 ui_in[7]
*14 uio_in[0]
*15 uio_in[1]
*16 uio_in[2]
*17 uio_in[3]
*18 uio_in[4]
*19 uio_in[5]
*20 uio_in[6]
*21 uio_in[7]
*22 net17
*23 net18
*24 net19
*25 net20
*26 net21
*27 net22
*28 net23
*29 net24
*30 net25
*31 net26
*32 net27
*33 net28
*34 net29
*35 net30
*36 net31
*37 net32
*38 uo_out[0]
*39 uo_out[1]
*40 uo_out[2]
*41 uo_out[3]
*42 uo_out[4]
*43 uo_out[5]
*44 uo_out[6]
*45 net33
*46 _000_
*47 _001_
*48 _002_
*49 _003_
*50 _004_
*51 _005_
*52 _006_
*53 _007_
*54 _008_
*55 _009_
*56 _010_
*57 _011_
*58 _012_
*59 _013_
*60 _014_
*61 _015_
*62 _016_
*63 _017_
*64 _018_
*65 _019_
*66 _020_
*67 _021_
*68 _022_
*69 _023_
*70 _024_
*71 _025_
*72 _026_
*73 _027_
*74 _028_
*75 _029_
*76 _030_
*77 _031_
*78 _032_
*79 _033_
*80 _034_
*81 _035_
*82 _036_
*83 _037_
*84 _038_
*85 _039_
*86 _040_
*87 _041_
*88 _042_
*89 _043_
*90 _044_
*91 _045_
*92 _046_
*93 _047_
*94 _048_
*95 _049_
*96 _050_
*97 _051_
*98 _052_
*99 _053_
*100 _054_
*101 _055_
*102 _056_
*103 _057_
*104 _058_
*105 _059_
*106 _060_
*107 _061_
*108 _062_
*109 _063_
*110 _064_
*111 _065_
*112 _066_
*113 _067_
*114 _068_
*115 _069_
*116 _070_
*117 _071_
*118 _072_
*119 _073_
*120 _074_
*121 _075_
*122 _076_
*123 _077_
*124 _078_
*125 _079_
*126 _080_
*127 _081_
*128 _082_
*129 _083_
*130 _084_
*131 _085_
*132 _086_
*133 _087_
*134 _088_
*135 _089_
*136 _090_
*137 _091_
*138 _092_
*139 _093_
*140 _094_
*141 _095_
*142 _096_
*143 _097_
*144 _098_
*145 _099_
*146 _100_
*147 _101_
*148 _102_
*149 _103_
*150 _104_
*151 _105_
*152 _106_
*153 _107_
*154 _108_
*155 _109_
*156 _110_
*157 _111_
*158 _112_
*159 _113_
*160 _114_
*161 _115_
*162 _116_
*163 _117_
*164 _118_
*165 _119_
*166 _120_
*167 _121_
*168 _122_
*169 _123_
*170 _124_
*171 _125_
*172 _126_
*173 _127_
*174 _128_
*175 _129_
*176 _130_
*177 _131_
*178 _132_
*179 _133_
*180 _134_
*181 _135_
*182 _136_
*183 _137_
*184 _138_
*185 _139_
*186 _140_
*187 _141_
*188 _142_
*189 _143_
*190 _144_
*191 _145_
*192 _146_
*193 _147_
*194 _148_
*195 _149_
*196 _150_
*197 _151_
*198 _152_
*199 _153_
*200 _154_
*201 _155_
*202 _156_
*203 _157_
*204 _158_
*205 _159_
*206 _160_
*207 _161_
*208 _162_
*209 _163_
*210 _164_
*211 _165_
*212 _166_
*213 _167_
*214 _168_
*215 _169_
*216 _170_
*217 _171_
*218 _172_
*219 _173_
*220 _174_
*221 _175_
*222 _176_
*223 _177_
*224 _178_
*225 _179_
*226 _180_
*227 _181_
*228 _182_
*229 _183_
*230 _184_
*231 _185_
*232 _186_
*233 _187_
*234 _188_
*235 _189_
*236 _190_
*237 _191_
*238 _192_
*239 _193_
*240 _194_
*241 _195_
*242 _196_
*243 _197_
*244 _198_
*245 _199_
*246 _200_
*247 _201_
*248 _202_
*249 _203_
*250 _204_
*251 _205_
*252 _206_
*253 _207_
*254 _208_
*255 _209_
*256 _210_
*257 _211_
*258 _212_
*259 _213_
*260 _214_
*261 _215_
*262 _216_
*263 _217_
*264 _218_
*265 _219_
*266 _220_
*267 _221_
*268 _222_
*269 _223_
*270 _224_
*271 _225_
*272 _226_
*273 _227_
*274 _228_
*275 _229_
*276 _230_
*277 _231_
*278 _232_
*279 _233_
*280 _234_
*281 _235_
*282 _236_
*283 _237_
*284 _238_
*285 _239_
*286 _240_
*287 _241_
*288 _242_
*289 _243_
*290 _244_
*291 _245_
*292 _246_
*293 _247_
*294 _248_
*295 _249_
*296 _250_
*297 _251_
*298 _252_
*299 _253_
*300 _254_
*301 _255_
*302 _256_
*303 _257_
*304 _258_
*305 _259_
*306 _260_
*307 _261_
*308 _262_
*309 _263_
*310 _264_
*311 _265_
*312 _266_
*313 _267_
*314 _268_
*315 _269_
*316 _270_
*317 _271_
*318 _272_
*319 _273_
*320 _274_
*321 _275_
*322 _276_
*323 _277_
*324 _278_
*325 _279_
*326 _280_
*327 _281_
*328 _282_
*329 _283_
*330 _284_
*331 _285_
*332 _286_
*333 _287_
*334 _288_
*335 _289_
*336 _290_
*337 _291_
*338 _292_
*339 _293_
*340 _294_
*341 _295_
*342 _296_
*343 _297_
*344 _298_
*345 _299_
*346 _300_
*347 _301_
*348 _302_
*349 _303_
*350 _304_
*351 _305_
*352 _306_
*353 _307_
*354 _308_
*355 _309_
*356 _310_
*357 _311_
*358 _312_
*359 _313_
*360 _314_
*361 _315_
*362 _316_
*363 _317_
*364 _318_
*365 _319_
*366 _320_
*367 _321_
*368 _322_
*369 _323_
*370 _324_
*371 _325_
*372 _326_
*373 _327_
*374 _328_
*375 _329_
*376 _330_
*377 _331_
*378 _332_
*379 _333_
*380 _334_
*381 _335_
*382 _336_
*383 _337_
*384 _338_
*385 _339_
*386 _340_
*387 _341_
*388 _342_
*389 _343_
*390 _344_
*391 _345_
*392 _346_
*393 _347_
*394 _348_
*395 _349_
*396 _350_
*397 _351_
*398 _352_
*399 _353_
*400 _354_
*401 _355_
*402 _356_
*403 _357_
*404 _358_
*405 _359_
*406 _360_
*407 _361_
*408 _362_
*409 _363_
*410 _364_
*411 _365_
*412 _366_
*413 _367_
*414 _368_
*415 _369_
*416 _370_
*417 _371_
*418 _372_
*419 _373_
*420 _374_
*421 _375_
*422 _376_
*423 _377_
*424 _378_
*425 _379_
*426 _380_
*427 _381_
*428 _382_
*429 _383_
*430 _384_
*431 _385_
*432 _386_
*433 _387_
*434 _388_
*435 _389_
*436 _390_
*437 _391_
*438 _392_
*439 _393_
*440 _394_
*441 _395_
*442 _396_
*443 _397_
*444 _398_
*445 _399_
*446 _400_
*447 _401_
*448 _402_
*449 _403_
*450 _404_
*451 _405_
*452 _406_
*453 _407_
*454 _408_
*455 _409_
*456 _410_
*457 _411_
*458 _412_
*459 _413_
*460 _414_
*461 _415_
*462 _416_
*463 _417_
*464 _418_
*465 _419_
*466 _420_
*467 _421_
*468 _422_
*469 _423_
*470 _424_
*471 _425_
*472 _426_
*473 _427_
*474 _428_
*475 _429_
*476 _430_
*477 _431_
*478 _432_
*479 _433_
*480 _434_
*481 _435_
*482 _436_
*483 _437_
*484 _438_
*485 _439_
*486 _440_
*487 _441_
*488 _442_
*489 _443_
*490 _444_
*491 _445_
*492 _446_
*493 _447_
*494 _448_
*495 _449_
*496 _450_
*497 _451_
*498 _452_
*499 _453_
*500 _454_
*501 _455_
*502 _456_
*503 _457_
*504 _458_
*505 _459_
*506 _460_
*507 _461_
*508 _462_
*509 _463_
*510 _464_
*511 _465_
*512 _466_
*513 _467_
*514 _468_
*515 _469_
*516 _470_
*517 _471_
*518 _472_
*519 _473_
*520 _474_
*521 _475_
*522 _476_
*523 _477_
*524 clknet_0_clk
*525 clknet_1_0__leaf_clk
*526 clknet_1_1__leaf_clk
*527 net1
*528 net10
*529 net11
*530 net12
*531 net13
*532 net14
*533 net15
*534 net16
*535 net2
*536 net3
*537 net4
*538 net5
*539 net6
*540 net7
*541 net8
*542 net9
*543 ANTENNA_1
*544 ANTENNA_2
*545 ANTENNA_3
*546 FILLER_0_0_109
*547 FILLER_0_0_113
*548 FILLER_0_0_125
*549 FILLER_0_0_137
*550 FILLER_0_0_141
*551 FILLER_0_0_15
*552 FILLER_0_0_153
*553 FILLER_0_0_165
*554 FILLER_0_0_169
*555 FILLER_0_0_181
*556 FILLER_0_0_193
*557 FILLER_0_0_197
*558 FILLER_0_0_209
*559 FILLER_0_0_221
*560 FILLER_0_0_225
*561 FILLER_0_0_237
*562 FILLER_0_0_249
*563 FILLER_0_0_253
*564 FILLER_0_0_265
*565 FILLER_0_0_27
*566 FILLER_0_0_277
*567 FILLER_0_0_281
*568 FILLER_0_0_29
*569 FILLER_0_0_293
*570 FILLER_0_0_3
*571 FILLER_0_0_305
*572 FILLER_0_0_309
*573 FILLER_0_0_321
*574 FILLER_0_0_333
*575 FILLER_0_0_337
*576 FILLER_0_0_349
*577 FILLER_0_0_41
*578 FILLER_0_0_53
*579 FILLER_0_0_57
*580 FILLER_0_0_69
*581 FILLER_0_0_81
*582 FILLER_0_0_85
*583 FILLER_0_0_97
*584 FILLER_0_10_109
*585 FILLER_0_10_121
*586 FILLER_0_10_133
*587 FILLER_0_10_139
*588 FILLER_0_10_141
*589 FILLER_0_10_15
*590 FILLER_0_10_153
*591 FILLER_0_10_165
*592 FILLER_0_10_177
*593 FILLER_0_10_189
*594 FILLER_0_10_195
*595 FILLER_0_10_197
*596 FILLER_0_10_209
*597 FILLER_0_10_221
*598 FILLER_0_10_233
*599 FILLER_0_10_245
*600 FILLER_0_10_251
*601 FILLER_0_10_253
*602 FILLER_0_10_265
*603 FILLER_0_10_27
*604 FILLER_0_10_277
*605 FILLER_0_10_289
*606 FILLER_0_10_29
*607 FILLER_0_10_3
*608 FILLER_0_10_301
*609 FILLER_0_10_307
*610 FILLER_0_10_309
*611 FILLER_0_10_321
*612 FILLER_0_10_333
*613 FILLER_0_10_345
*614 FILLER_0_10_41
*615 FILLER_0_10_53
*616 FILLER_0_10_65
*617 FILLER_0_10_77
*618 FILLER_0_10_83
*619 FILLER_0_10_85
*620 FILLER_0_10_97
*621 FILLER_0_11_105
*622 FILLER_0_11_111
*623 FILLER_0_11_113
*624 FILLER_0_11_125
*625 FILLER_0_11_137
*626 FILLER_0_11_149
*627 FILLER_0_11_15
*628 FILLER_0_11_161
*629 FILLER_0_11_167
*630 FILLER_0_11_169
*631 FILLER_0_11_181
*632 FILLER_0_11_193
*633 FILLER_0_11_205
*634 FILLER_0_11_217
*635 FILLER_0_11_223
*636 FILLER_0_11_225
*637 FILLER_0_11_237
*638 FILLER_0_11_249
*639 FILLER_0_11_261
*640 FILLER_0_11_27
*641 FILLER_0_11_273
*642 FILLER_0_11_279
*643 FILLER_0_11_281
*644 FILLER_0_11_293
*645 FILLER_0_11_3
*646 FILLER_0_11_305
*647 FILLER_0_11_317
*648 FILLER_0_11_329
*649 FILLER_0_11_335
*650 FILLER_0_11_337
*651 FILLER_0_11_349
*652 FILLER_0_11_39
*653 FILLER_0_11_51
*654 FILLER_0_11_55
*655 FILLER_0_11_57
*656 FILLER_0_11_69
*657 FILLER_0_11_81
*658 FILLER_0_11_93
*659 FILLER_0_12_109
*660 FILLER_0_12_121
*661 FILLER_0_12_133
*662 FILLER_0_12_139
*663 FILLER_0_12_141
*664 FILLER_0_12_15
*665 FILLER_0_12_153
*666 FILLER_0_12_165
*667 FILLER_0_12_177
*668 FILLER_0_12_189
*669 FILLER_0_12_195
*670 FILLER_0_12_197
*671 FILLER_0_12_209
*672 FILLER_0_12_221
*673 FILLER_0_12_233
*674 FILLER_0_12_245
*675 FILLER_0_12_251
*676 FILLER_0_12_253
*677 FILLER_0_12_265
*678 FILLER_0_12_27
*679 FILLER_0_12_277
*680 FILLER_0_12_289
*681 FILLER_0_12_29
*682 FILLER_0_12_3
*683 FILLER_0_12_301
*684 FILLER_0_12_307
*685 FILLER_0_12_309
*686 FILLER_0_12_321
*687 FILLER_0_12_333
*688 FILLER_0_12_345
*689 FILLER_0_12_41
*690 FILLER_0_12_53
*691 FILLER_0_12_65
*692 FILLER_0_12_77
*693 FILLER_0_12_83
*694 FILLER_0_12_85
*695 FILLER_0_12_97
*696 FILLER_0_13_105
*697 FILLER_0_13_111
*698 FILLER_0_13_113
*699 FILLER_0_13_125
*700 FILLER_0_13_137
*701 FILLER_0_13_149
*702 FILLER_0_13_15
*703 FILLER_0_13_161
*704 FILLER_0_13_167
*705 FILLER_0_13_169
*706 FILLER_0_13_181
*707 FILLER_0_13_193
*708 FILLER_0_13_205
*709 FILLER_0_13_217
*710 FILLER_0_13_223
*711 FILLER_0_13_225
*712 FILLER_0_13_237
*713 FILLER_0_13_249
*714 FILLER_0_13_261
*715 FILLER_0_13_27
*716 FILLER_0_13_273
*717 FILLER_0_13_279
*718 FILLER_0_13_281
*719 FILLER_0_13_293
*720 FILLER_0_13_3
*721 FILLER_0_13_305
*722 FILLER_0_13_317
*723 FILLER_0_13_329
*724 FILLER_0_13_335
*725 FILLER_0_13_337
*726 FILLER_0_13_349
*727 FILLER_0_13_39
*728 FILLER_0_13_51
*729 FILLER_0_13_55
*730 FILLER_0_13_57
*731 FILLER_0_13_69
*732 FILLER_0_13_81
*733 FILLER_0_13_93
*734 FILLER_0_14_109
*735 FILLER_0_14_121
*736 FILLER_0_14_133
*737 FILLER_0_14_139
*738 FILLER_0_14_141
*739 FILLER_0_14_15
*740 FILLER_0_14_153
*741 FILLER_0_14_165
*742 FILLER_0_14_177
*743 FILLER_0_14_189
*744 FILLER_0_14_195
*745 FILLER_0_14_197
*746 FILLER_0_14_209
*747 FILLER_0_14_221
*748 FILLER_0_14_233
*749 FILLER_0_14_245
*750 FILLER_0_14_251
*751 FILLER_0_14_253
*752 FILLER_0_14_265
*753 FILLER_0_14_27
*754 FILLER_0_14_277
*755 FILLER_0_14_289
*756 FILLER_0_14_29
*757 FILLER_0_14_3
*758 FILLER_0_14_301
*759 FILLER_0_14_307
*760 FILLER_0_14_309
*761 FILLER_0_14_321
*762 FILLER_0_14_333
*763 FILLER_0_14_345
*764 FILLER_0_14_41
*765 FILLER_0_14_53
*766 FILLER_0_14_65
*767 FILLER_0_14_77
*768 FILLER_0_14_83
*769 FILLER_0_14_85
*770 FILLER_0_14_97
*771 FILLER_0_15_105
*772 FILLER_0_15_111
*773 FILLER_0_15_113
*774 FILLER_0_15_125
*775 FILLER_0_15_137
*776 FILLER_0_15_149
*777 FILLER_0_15_15
*778 FILLER_0_15_161
*779 FILLER_0_15_167
*780 FILLER_0_15_169
*781 FILLER_0_15_181
*782 FILLER_0_15_193
*783 FILLER_0_15_205
*784 FILLER_0_15_217
*785 FILLER_0_15_223
*786 FILLER_0_15_225
*787 FILLER_0_15_237
*788 FILLER_0_15_249
*789 FILLER_0_15_261
*790 FILLER_0_15_27
*791 FILLER_0_15_273
*792 FILLER_0_15_279
*793 FILLER_0_15_281
*794 FILLER_0_15_293
*795 FILLER_0_15_3
*796 FILLER_0_15_305
*797 FILLER_0_15_317
*798 FILLER_0_15_329
*799 FILLER_0_15_335
*800 FILLER_0_15_337
*801 FILLER_0_15_349
*802 FILLER_0_15_39
*803 FILLER_0_15_51
*804 FILLER_0_15_55
*805 FILLER_0_15_57
*806 FILLER_0_15_69
*807 FILLER_0_15_81
*808 FILLER_0_15_93
*809 FILLER_0_16_109
*810 FILLER_0_16_121
*811 FILLER_0_16_133
*812 FILLER_0_16_139
*813 FILLER_0_16_141
*814 FILLER_0_16_15
*815 FILLER_0_16_153
*816 FILLER_0_16_165
*817 FILLER_0_16_177
*818 FILLER_0_16_189
*819 FILLER_0_16_195
*820 FILLER_0_16_197
*821 FILLER_0_16_209
*822 FILLER_0_16_221
*823 FILLER_0_16_233
*824 FILLER_0_16_245
*825 FILLER_0_16_251
*826 FILLER_0_16_253
*827 FILLER_0_16_265
*828 FILLER_0_16_27
*829 FILLER_0_16_277
*830 FILLER_0_16_289
*831 FILLER_0_16_29
*832 FILLER_0_16_3
*833 FILLER_0_16_301
*834 FILLER_0_16_307
*835 FILLER_0_16_309
*836 FILLER_0_16_321
*837 FILLER_0_16_333
*838 FILLER_0_16_345
*839 FILLER_0_16_41
*840 FILLER_0_16_53
*841 FILLER_0_16_65
*842 FILLER_0_16_77
*843 FILLER_0_16_83
*844 FILLER_0_16_85
*845 FILLER_0_16_97
*846 FILLER_0_17_105
*847 FILLER_0_17_111
*848 FILLER_0_17_113
*849 FILLER_0_17_125
*850 FILLER_0_17_137
*851 FILLER_0_17_149
*852 FILLER_0_17_15
*853 FILLER_0_17_161
*854 FILLER_0_17_167
*855 FILLER_0_17_169
*856 FILLER_0_17_181
*857 FILLER_0_17_193
*858 FILLER_0_17_205
*859 FILLER_0_17_217
*860 FILLER_0_17_223
*861 FILLER_0_17_225
*862 FILLER_0_17_237
*863 FILLER_0_17_249
*864 FILLER_0_17_261
*865 FILLER_0_17_27
*866 FILLER_0_17_273
*867 FILLER_0_17_279
*868 FILLER_0_17_281
*869 FILLER_0_17_293
*870 FILLER_0_17_3
*871 FILLER_0_17_305
*872 FILLER_0_17_317
*873 FILLER_0_17_329
*874 FILLER_0_17_335
*875 FILLER_0_17_337
*876 FILLER_0_17_349
*877 FILLER_0_17_39
*878 FILLER_0_17_51
*879 FILLER_0_17_55
*880 FILLER_0_17_57
*881 FILLER_0_17_69
*882 FILLER_0_17_81
*883 FILLER_0_17_93
*884 FILLER_0_18_109
*885 FILLER_0_18_121
*886 FILLER_0_18_133
*887 FILLER_0_18_139
*888 FILLER_0_18_141
*889 FILLER_0_18_15
*890 FILLER_0_18_153
*891 FILLER_0_18_165
*892 FILLER_0_18_177
*893 FILLER_0_18_189
*894 FILLER_0_18_195
*895 FILLER_0_18_197
*896 FILLER_0_18_209
*897 FILLER_0_18_221
*898 FILLER_0_18_233
*899 FILLER_0_18_245
*900 FILLER_0_18_251
*901 FILLER_0_18_253
*902 FILLER_0_18_265
*903 FILLER_0_18_27
*904 FILLER_0_18_277
*905 FILLER_0_18_289
*906 FILLER_0_18_29
*907 FILLER_0_18_3
*908 FILLER_0_18_301
*909 FILLER_0_18_307
*910 FILLER_0_18_309
*911 FILLER_0_18_321
*912 FILLER_0_18_333
*913 FILLER_0_18_345
*914 FILLER_0_18_41
*915 FILLER_0_18_53
*916 FILLER_0_18_65
*917 FILLER_0_18_77
*918 FILLER_0_18_83
*919 FILLER_0_18_85
*920 FILLER_0_18_97
*921 FILLER_0_19_105
*922 FILLER_0_19_111
*923 FILLER_0_19_113
*924 FILLER_0_19_125
*925 FILLER_0_19_137
*926 FILLER_0_19_149
*927 FILLER_0_19_15
*928 FILLER_0_19_161
*929 FILLER_0_19_167
*930 FILLER_0_19_169
*931 FILLER_0_19_181
*932 FILLER_0_19_193
*933 FILLER_0_19_205
*934 FILLER_0_19_217
*935 FILLER_0_19_223
*936 FILLER_0_19_225
*937 FILLER_0_19_237
*938 FILLER_0_19_249
*939 FILLER_0_19_261
*940 FILLER_0_19_27
*941 FILLER_0_19_273
*942 FILLER_0_19_279
*943 FILLER_0_19_281
*944 FILLER_0_19_293
*945 FILLER_0_19_3
*946 FILLER_0_19_305
*947 FILLER_0_19_317
*948 FILLER_0_19_329
*949 FILLER_0_19_335
*950 FILLER_0_19_337
*951 FILLER_0_19_349
*952 FILLER_0_19_39
*953 FILLER_0_19_51
*954 FILLER_0_19_55
*955 FILLER_0_19_57
*956 FILLER_0_19_69
*957 FILLER_0_19_81
*958 FILLER_0_19_93
*959 FILLER_0_1_105
*960 FILLER_0_1_111
*961 FILLER_0_1_113
*962 FILLER_0_1_125
*963 FILLER_0_1_137
*964 FILLER_0_1_149
*965 FILLER_0_1_15
*966 FILLER_0_1_161
*967 FILLER_0_1_167
*968 FILLER_0_1_169
*969 FILLER_0_1_181
*970 FILLER_0_1_193
*971 FILLER_0_1_205
*972 FILLER_0_1_217
*973 FILLER_0_1_223
*974 FILLER_0_1_225
*975 FILLER_0_1_237
*976 FILLER_0_1_249
*977 FILLER_0_1_261
*978 FILLER_0_1_27
*979 FILLER_0_1_273
*980 FILLER_0_1_279
*981 FILLER_0_1_281
*982 FILLER_0_1_293
*983 FILLER_0_1_3
*984 FILLER_0_1_305
*985 FILLER_0_1_317
*986 FILLER_0_1_329
*987 FILLER_0_1_335
*988 FILLER_0_1_337
*989 FILLER_0_1_349
*990 FILLER_0_1_39
*991 FILLER_0_1_51
*992 FILLER_0_1_55
*993 FILLER_0_1_57
*994 FILLER_0_1_69
*995 FILLER_0_1_81
*996 FILLER_0_1_93
*997 FILLER_0_20_109
*998 FILLER_0_20_121
*999 FILLER_0_20_133
*1000 FILLER_0_20_139
*1001 FILLER_0_20_141
*1002 FILLER_0_20_149
*1003 FILLER_0_20_15
*1004 FILLER_0_20_157
*1005 FILLER_0_20_178
*1006 FILLER_0_20_186
*1007 FILLER_0_20_195
*1008 FILLER_0_20_197
*1009 FILLER_0_20_217
*1010 FILLER_0_20_223
*1011 FILLER_0_20_227
*1012 FILLER_0_20_241
*1013 FILLER_0_20_249
*1014 FILLER_0_20_258
*1015 FILLER_0_20_27
*1016 FILLER_0_20_270
*1017 FILLER_0_20_282
*1018 FILLER_0_20_29
*1019 FILLER_0_20_294
*1020 FILLER_0_20_3
*1021 FILLER_0_20_306
*1022 FILLER_0_20_309
*1023 FILLER_0_20_321
*1024 FILLER_0_20_333
*1025 FILLER_0_20_345
*1026 FILLER_0_20_41
*1027 FILLER_0_20_53
*1028 FILLER_0_20_65
*1029 FILLER_0_20_77
*1030 FILLER_0_20_83
*1031 FILLER_0_20_85
*1032 FILLER_0_20_97
*1033 FILLER_0_21_105
*1034 FILLER_0_21_113
*1035 FILLER_0_21_117
*1036 FILLER_0_21_127
*1037 FILLER_0_21_145
*1038 FILLER_0_21_15
*1039 FILLER_0_21_156
*1040 FILLER_0_21_176
*1041 FILLER_0_21_180
*1042 FILLER_0_21_188
*1043 FILLER_0_21_192
*1044 FILLER_0_21_201
*1045 FILLER_0_21_222
*1046 FILLER_0_21_225
*1047 FILLER_0_21_242
*1048 FILLER_0_21_249
*1049 FILLER_0_21_257
*1050 FILLER_0_21_266
*1051 FILLER_0_21_27
*1052 FILLER_0_21_276
*1053 FILLER_0_21_291
*1054 FILLER_0_21_3
*1055 FILLER_0_21_303
*1056 FILLER_0_21_315
*1057 FILLER_0_21_327
*1058 FILLER_0_21_335
*1059 FILLER_0_21_337
*1060 FILLER_0_21_349
*1061 FILLER_0_21_39
*1062 FILLER_0_21_51
*1063 FILLER_0_21_55
*1064 FILLER_0_21_57
*1065 FILLER_0_21_65
*1066 FILLER_0_21_73
*1067 FILLER_0_21_87
*1068 FILLER_0_21_99
*1069 FILLER_0_22_102
*1070 FILLER_0_22_110
*1071 FILLER_0_22_126
*1072 FILLER_0_22_138
*1073 FILLER_0_22_15
*1074 FILLER_0_22_150
*1075 FILLER_0_22_161
*1076 FILLER_0_22_167
*1077 FILLER_0_22_172
*1078 FILLER_0_22_187
*1079 FILLER_0_22_195
*1080 FILLER_0_22_197
*1081 FILLER_0_22_209
*1082 FILLER_0_22_213
*1083 FILLER_0_22_218
*1084 FILLER_0_22_230
*1085 FILLER_0_22_242
*1086 FILLER_0_22_250
*1087 FILLER_0_22_265
*1088 FILLER_0_22_27
*1089 FILLER_0_22_273
*1090 FILLER_0_22_289
*1091 FILLER_0_22_29
*1092 FILLER_0_22_3
*1093 FILLER_0_22_301
*1094 FILLER_0_22_307
*1095 FILLER_0_22_309
*1096 FILLER_0_22_317
*1097 FILLER_0_22_326
*1098 FILLER_0_22_338
*1099 FILLER_0_22_350
*1100 FILLER_0_22_41
*1101 FILLER_0_22_53
*1102 FILLER_0_22_57
*1103 FILLER_0_22_63
*1104 FILLER_0_22_75
*1105 FILLER_0_22_83
*1106 FILLER_0_23_104
*1107 FILLER_0_23_118
*1108 FILLER_0_23_128
*1109 FILLER_0_23_140
*1110 FILLER_0_23_146
*1111 FILLER_0_23_15
*1112 FILLER_0_23_155
*1113 FILLER_0_23_165
*1114 FILLER_0_23_169
*1115 FILLER_0_23_179
*1116 FILLER_0_23_185
*1117 FILLER_0_23_194
*1118 FILLER_0_23_202
*1119 FILLER_0_23_220
*1120 FILLER_0_23_225
*1121 FILLER_0_23_230
*1122 FILLER_0_23_235
*1123 FILLER_0_23_254
*1124 FILLER_0_23_266
*1125 FILLER_0_23_27
*1126 FILLER_0_23_276
*1127 FILLER_0_23_281
*1128 FILLER_0_23_3
*1129 FILLER_0_23_302
*1130 FILLER_0_23_322
*1131 FILLER_0_23_334
*1132 FILLER_0_23_337
*1133 FILLER_0_23_349
*1134 FILLER_0_23_39
*1135 FILLER_0_23_51
*1136 FILLER_0_23_55
*1137 FILLER_0_23_64
*1138 FILLER_0_23_71
*1139 FILLER_0_23_83
*1140 FILLER_0_23_94
*1141 FILLER_0_24_106
*1142 FILLER_0_24_129
*1143 FILLER_0_24_148
*1144 FILLER_0_24_15
*1145 FILLER_0_24_176
*1146 FILLER_0_24_182
*1147 FILLER_0_24_191
*1148 FILLER_0_24_195
*1149 FILLER_0_24_204
*1150 FILLER_0_24_210
*1151 FILLER_0_24_222
*1152 FILLER_0_24_226
*1153 FILLER_0_24_233
*1154 FILLER_0_24_241
*1155 FILLER_0_24_249
*1156 FILLER_0_24_253
*1157 FILLER_0_24_261
*1158 FILLER_0_24_27
*1159 FILLER_0_24_275
*1160 FILLER_0_24_282
*1161 FILLER_0_24_29
*1162 FILLER_0_24_3
*1163 FILLER_0_24_305
*1164 FILLER_0_24_315
*1165 FILLER_0_24_319
*1166 FILLER_0_24_331
*1167 FILLER_0_24_343
*1168 FILLER_0_24_41
*1169 FILLER_0_24_53
*1170 FILLER_0_24_65
*1171 FILLER_0_24_79
*1172 FILLER_0_24_83
*1173 FILLER_0_25_109
*1174 FILLER_0_25_113
*1175 FILLER_0_25_122
*1176 FILLER_0_25_134
*1177 FILLER_0_25_15
*1178 FILLER_0_25_154
*1179 FILLER_0_25_165
*1180 FILLER_0_25_179
*1181 FILLER_0_25_189
*1182 FILLER_0_25_207
*1183 FILLER_0_25_215
*1184 FILLER_0_25_223
*1185 FILLER_0_25_238
*1186 FILLER_0_25_244
*1187 FILLER_0_25_268
*1188 FILLER_0_25_27
*1189 FILLER_0_25_281
*1190 FILLER_0_25_293
*1191 FILLER_0_25_3
*1192 FILLER_0_25_305
*1193 FILLER_0_25_315
*1194 FILLER_0_25_323
*1195 FILLER_0_25_331
*1196 FILLER_0_25_335
*1197 FILLER_0_25_337
*1198 FILLER_0_25_349
*1199 FILLER_0_25_39
*1200 FILLER_0_25_55
*1201 FILLER_0_25_63
*1202 FILLER_0_25_67
*1203 FILLER_0_25_75
*1204 FILLER_0_25_87
*1205 FILLER_0_25_95
*1206 FILLER_0_26_105
*1207 FILLER_0_26_110
*1208 FILLER_0_26_135
*1209 FILLER_0_26_139
*1210 FILLER_0_26_141
*1211 FILLER_0_26_15
*1212 FILLER_0_26_154
*1213 FILLER_0_26_163
*1214 FILLER_0_26_171
*1215 FILLER_0_26_189
*1216 FILLER_0_26_195
*1217 FILLER_0_26_207
*1218 FILLER_0_26_218
*1219 FILLER_0_26_226
*1220 FILLER_0_26_236
*1221 FILLER_0_26_242
*1222 FILLER_0_26_27
*1223 FILLER_0_26_282
*1224 FILLER_0_26_29
*1225 FILLER_0_26_3
*1226 FILLER_0_26_300
*1227 FILLER_0_26_326
*1228 FILLER_0_26_336
*1229 FILLER_0_26_343
*1230 FILLER_0_26_41
*1231 FILLER_0_26_51
*1232 FILLER_0_26_55
*1233 FILLER_0_26_64
*1234 FILLER_0_26_68
*1235 FILLER_0_26_76
*1236 FILLER_0_26_85
*1237 FILLER_0_26_89
*1238 FILLER_0_26_94
*1239 FILLER_0_27_101
*1240 FILLER_0_27_109
*1241 FILLER_0_27_116
*1242 FILLER_0_27_124
*1243 FILLER_0_27_129
*1244 FILLER_0_27_135
*1245 FILLER_0_27_144
*1246 FILLER_0_27_15
*1247 FILLER_0_27_152
*1248 FILLER_0_27_156
*1249 FILLER_0_27_169
*1250 FILLER_0_27_185
*1251 FILLER_0_27_191
*1252 FILLER_0_27_200
*1253 FILLER_0_27_215
*1254 FILLER_0_27_223
*1255 FILLER_0_27_225
*1256 FILLER_0_27_237
*1257 FILLER_0_27_241
*1258 FILLER_0_27_252
*1259 FILLER_0_27_27
*1260 FILLER_0_27_274
*1261 FILLER_0_27_281
*1262 FILLER_0_27_296
*1263 FILLER_0_27_3
*1264 FILLER_0_27_304
*1265 FILLER_0_27_312
*1266 FILLER_0_27_320
*1267 FILLER_0_27_332
*1268 FILLER_0_27_349
*1269 FILLER_0_27_39
*1270 FILLER_0_27_47
*1271 FILLER_0_27_57
*1272 FILLER_0_27_61
*1273 FILLER_0_27_69
*1274 FILLER_0_27_78
*1275 FILLER_0_27_86
*1276 FILLER_0_28_116
*1277 FILLER_0_28_120
*1278 FILLER_0_28_129
*1279 FILLER_0_28_137
*1280 FILLER_0_28_15
*1281 FILLER_0_28_156
*1282 FILLER_0_28_167
*1283 FILLER_0_28_173
*1284 FILLER_0_28_177
*1285 FILLER_0_28_183
*1286 FILLER_0_28_191
*1287 FILLER_0_28_195
*1288 FILLER_0_28_197
*1289 FILLER_0_28_204
*1290 FILLER_0_28_216
*1291 FILLER_0_28_224
*1292 FILLER_0_28_239
*1293 FILLER_0_28_247
*1294 FILLER_0_28_251
*1295 FILLER_0_28_260
*1296 FILLER_0_28_27
*1297 FILLER_0_28_270
*1298 FILLER_0_28_282
*1299 FILLER_0_28_29
*1300 FILLER_0_28_3
*1301 FILLER_0_28_300
*1302 FILLER_0_28_321
*1303 FILLER_0_28_340
*1304 FILLER_0_28_348
*1305 FILLER_0_28_41
*1306 FILLER_0_28_65
*1307 FILLER_0_28_73
*1308 FILLER_0_28_77
*1309 FILLER_0_28_83
*1310 FILLER_0_28_97
*1311 FILLER_0_29_101
*1312 FILLER_0_29_110
*1313 FILLER_0_29_118
*1314 FILLER_0_29_131
*1315 FILLER_0_29_143
*1316 FILLER_0_29_15
*1317 FILLER_0_29_155
*1318 FILLER_0_29_167
*1319 FILLER_0_29_169
*1320 FILLER_0_29_173
*1321 FILLER_0_29_182
*1322 FILLER_0_29_194
*1323 FILLER_0_29_200
*1324 FILLER_0_29_208
*1325 FILLER_0_29_216
*1326 FILLER_0_29_225
*1327 FILLER_0_29_237
*1328 FILLER_0_29_249
*1329 FILLER_0_29_269
*1330 FILLER_0_29_27
*1331 FILLER_0_29_278
*1332 FILLER_0_29_290
*1333 FILLER_0_29_3
*1334 FILLER_0_29_302
*1335 FILLER_0_29_319
*1336 FILLER_0_29_328
*1337 FILLER_0_29_343
*1338 FILLER_0_29_39
*1339 FILLER_0_29_51
*1340 FILLER_0_29_55
*1341 FILLER_0_29_65
*1342 FILLER_0_29_77
*1343 FILLER_0_29_89
*1344 FILLER_0_29_97
*1345 FILLER_0_2_109
*1346 FILLER_0_2_121
*1347 FILLER_0_2_133
*1348 FILLER_0_2_139
*1349 FILLER_0_2_141
*1350 FILLER_0_2_15
*1351 FILLER_0_2_153
*1352 FILLER_0_2_165
*1353 FILLER_0_2_177
*1354 FILLER_0_2_189
*1355 FILLER_0_2_195
*1356 FILLER_0_2_197
*1357 FILLER_0_2_209
*1358 FILLER_0_2_221
*1359 FILLER_0_2_233
*1360 FILLER_0_2_245
*1361 FILLER_0_2_251
*1362 FILLER_0_2_253
*1363 FILLER_0_2_265
*1364 FILLER_0_2_27
*1365 FILLER_0_2_277
*1366 FILLER_0_2_289
*1367 FILLER_0_2_29
*1368 FILLER_0_2_3
*1369 FILLER_0_2_301
*1370 FILLER_0_2_307
*1371 FILLER_0_2_309
*1372 FILLER_0_2_321
*1373 FILLER_0_2_333
*1374 FILLER_0_2_345
*1375 FILLER_0_2_41
*1376 FILLER_0_2_53
*1377 FILLER_0_2_65
*1378 FILLER_0_2_77
*1379 FILLER_0_2_83
*1380 FILLER_0_2_85
*1381 FILLER_0_2_97
*1382 FILLER_0_30_101
*1383 FILLER_0_30_105
*1384 FILLER_0_30_109
*1385 FILLER_0_30_113
*1386 FILLER_0_30_128
*1387 FILLER_0_30_15
*1388 FILLER_0_30_165
*1389 FILLER_0_30_177
*1390 FILLER_0_30_210
*1391 FILLER_0_30_220
*1392 FILLER_0_30_226
*1393 FILLER_0_30_249
*1394 FILLER_0_30_265
*1395 FILLER_0_30_27
*1396 FILLER_0_30_273
*1397 FILLER_0_30_282
*1398 FILLER_0_30_29
*1399 FILLER_0_30_290
*1400 FILLER_0_30_3
*1401 FILLER_0_30_305
*1402 FILLER_0_30_309
*1403 FILLER_0_30_321
*1404 FILLER_0_30_329
*1405 FILLER_0_30_337
*1406 FILLER_0_30_342
*1407 FILLER_0_30_350
*1408 FILLER_0_30_41
*1409 FILLER_0_30_45
*1410 FILLER_0_30_51
*1411 FILLER_0_30_66
*1412 FILLER_0_30_74
*1413 FILLER_0_30_83
*1414 FILLER_0_30_85
*1415 FILLER_0_31_113
*1416 FILLER_0_31_131
*1417 FILLER_0_31_137
*1418 FILLER_0_31_144
*1419 FILLER_0_31_15
*1420 FILLER_0_31_156
*1421 FILLER_0_31_169
*1422 FILLER_0_31_181
*1423 FILLER_0_31_188
*1424 FILLER_0_31_196
*1425 FILLER_0_31_202
*1426 FILLER_0_31_214
*1427 FILLER_0_31_220
*1428 FILLER_0_31_228
*1429 FILLER_0_31_239
*1430 FILLER_0_31_251
*1431 FILLER_0_31_259
*1432 FILLER_0_31_27
*1433 FILLER_0_31_274
*1434 FILLER_0_31_288
*1435 FILLER_0_31_292
*1436 FILLER_0_31_3
*1437 FILLER_0_31_306
*1438 FILLER_0_31_314
*1439 FILLER_0_31_323
*1440 FILLER_0_31_331
*1441 FILLER_0_31_335
*1442 FILLER_0_31_345
*1443 FILLER_0_31_39
*1444 FILLER_0_31_54
*1445 FILLER_0_31_68
*1446 FILLER_0_31_79
*1447 FILLER_0_31_87
*1448 FILLER_0_31_99
*1449 FILLER_0_32_100
*1450 FILLER_0_32_129
*1451 FILLER_0_32_137
*1452 FILLER_0_32_15
*1453 FILLER_0_32_163
*1454 FILLER_0_32_175
*1455 FILLER_0_32_182
*1456 FILLER_0_32_186
*1457 FILLER_0_32_194
*1458 FILLER_0_32_214
*1459 FILLER_0_32_222
*1460 FILLER_0_32_227
*1461 FILLER_0_32_235
*1462 FILLER_0_32_251
*1463 FILLER_0_32_257
*1464 FILLER_0_32_266
*1465 FILLER_0_32_27
*1466 FILLER_0_32_286
*1467 FILLER_0_32_29
*1468 FILLER_0_32_294
*1469 FILLER_0_32_299
*1470 FILLER_0_32_3
*1471 FILLER_0_32_318
*1472 FILLER_0_32_324
*1473 FILLER_0_32_345
*1474 FILLER_0_32_41
*1475 FILLER_0_32_60
*1476 FILLER_0_32_77
*1477 FILLER_0_32_83
*1478 FILLER_0_32_85
*1479 FILLER_0_33_105
*1480 FILLER_0_33_111
*1481 FILLER_0_33_113
*1482 FILLER_0_33_120
*1483 FILLER_0_33_128
*1484 FILLER_0_33_139
*1485 FILLER_0_33_147
*1486 FILLER_0_33_15
*1487 FILLER_0_33_151
*1488 FILLER_0_33_163
*1489 FILLER_0_33_167
*1490 FILLER_0_33_173
*1491 FILLER_0_33_177
*1492 FILLER_0_33_186
*1493 FILLER_0_33_197
*1494 FILLER_0_33_206
*1495 FILLER_0_33_212
*1496 FILLER_0_33_221
*1497 FILLER_0_33_233
*1498 FILLER_0_33_245
*1499 FILLER_0_33_253
*1500 FILLER_0_33_268
*1501 FILLER_0_33_27
*1502 FILLER_0_33_274
*1503 FILLER_0_33_296
*1504 FILLER_0_33_3
*1505 FILLER_0_33_309
*1506 FILLER_0_33_323
*1507 FILLER_0_33_335
*1508 FILLER_0_33_343
*1509 FILLER_0_33_39
*1510 FILLER_0_33_51
*1511 FILLER_0_33_55
*1512 FILLER_0_33_61
*1513 FILLER_0_33_73
*1514 FILLER_0_33_85
*1515 FILLER_0_33_90
*1516 FILLER_0_33_98
*1517 FILLER_0_34_105
*1518 FILLER_0_34_113
*1519 FILLER_0_34_120
*1520 FILLER_0_34_128
*1521 FILLER_0_34_133
*1522 FILLER_0_34_149
*1523 FILLER_0_34_15
*1524 FILLER_0_34_156
*1525 FILLER_0_34_165
*1526 FILLER_0_34_173
*1527 FILLER_0_34_183
*1528 FILLER_0_34_195
*1529 FILLER_0_34_197
*1530 FILLER_0_34_203
*1531 FILLER_0_34_209
*1532 FILLER_0_34_217
*1533 FILLER_0_34_225
*1534 FILLER_0_34_238
*1535 FILLER_0_34_248
*1536 FILLER_0_34_253
*1537 FILLER_0_34_265
*1538 FILLER_0_34_27
*1539 FILLER_0_34_275
*1540 FILLER_0_34_282
*1541 FILLER_0_34_29
*1542 FILLER_0_34_290
*1543 FILLER_0_34_3
*1544 FILLER_0_34_306
*1545 FILLER_0_34_309
*1546 FILLER_0_34_317
*1547 FILLER_0_34_322
*1548 FILLER_0_34_328
*1549 FILLER_0_34_350
*1550 FILLER_0_34_41
*1551 FILLER_0_34_49
*1552 FILLER_0_34_66
*1553 FILLER_0_34_83
*1554 FILLER_0_34_85
*1555 FILLER_0_34_97
*1556 FILLER_0_35_100
*1557 FILLER_0_35_113
*1558 FILLER_0_35_124
*1559 FILLER_0_35_132
*1560 FILLER_0_35_148
*1561 FILLER_0_35_15
*1562 FILLER_0_35_160
*1563 FILLER_0_35_175
*1564 FILLER_0_35_179
*1565 FILLER_0_35_198
*1566 FILLER_0_35_210
*1567 FILLER_0_35_223
*1568 FILLER_0_35_232
*1569 FILLER_0_35_244
*1570 FILLER_0_35_265
*1571 FILLER_0_35_27
*1572 FILLER_0_35_290
*1573 FILLER_0_35_294
*1574 FILLER_0_35_3
*1575 FILLER_0_35_306
*1576 FILLER_0_35_312
*1577 FILLER_0_35_329
*1578 FILLER_0_35_335
*1579 FILLER_0_35_337
*1580 FILLER_0_35_341
*1581 FILLER_0_35_349
*1582 FILLER_0_35_39
*1583 FILLER_0_35_51
*1584 FILLER_0_35_55
*1585 FILLER_0_35_57
*1586 FILLER_0_35_69
*1587 FILLER_0_35_76
*1588 FILLER_0_35_80
*1589 FILLER_0_35_88
*1590 FILLER_0_35_92
*1591 FILLER_0_36_108
*1592 FILLER_0_36_126
*1593 FILLER_0_36_138
*1594 FILLER_0_36_15
*1595 FILLER_0_36_153
*1596 FILLER_0_36_166
*1597 FILLER_0_36_173
*1598 FILLER_0_36_189
*1599 FILLER_0_36_195
*1600 FILLER_0_36_204
*1601 FILLER_0_36_211
*1602 FILLER_0_36_217
*1603 FILLER_0_36_221
*1604 FILLER_0_36_230
*1605 FILLER_0_36_242
*1606 FILLER_0_36_247
*1607 FILLER_0_36_251
*1608 FILLER_0_36_253
*1609 FILLER_0_36_261
*1610 FILLER_0_36_27
*1611 FILLER_0_36_271
*1612 FILLER_0_36_275
*1613 FILLER_0_36_283
*1614 FILLER_0_36_29
*1615 FILLER_0_36_294
*1616 FILLER_0_36_3
*1617 FILLER_0_36_323
*1618 FILLER_0_36_343
*1619 FILLER_0_36_37
*1620 FILLER_0_36_78
*1621 FILLER_0_36_88
*1622 FILLER_0_37_136
*1623 FILLER_0_37_148
*1624 FILLER_0_37_15
*1625 FILLER_0_37_156
*1626 FILLER_0_37_167
*1627 FILLER_0_37_179
*1628 FILLER_0_37_185
*1629 FILLER_0_37_203
*1630 FILLER_0_37_231
*1631 FILLER_0_37_267
*1632 FILLER_0_37_27
*1633 FILLER_0_37_278
*1634 FILLER_0_37_298
*1635 FILLER_0_37_3
*1636 FILLER_0_37_303
*1637 FILLER_0_37_313
*1638 FILLER_0_37_331
*1639 FILLER_0_37_35
*1640 FILLER_0_37_80
*1641 FILLER_0_37_86
*1642 FILLER_0_38_113
*1643 FILLER_0_38_135
*1644 FILLER_0_38_14
*1645 FILLER_0_38_158
*1646 FILLER_0_38_166
*1647 FILLER_0_38_169
*1648 FILLER_0_38_177
*1649 FILLER_0_38_18
*1650 FILLER_0_38_183
*1651 FILLER_0_38_195
*1652 FILLER_0_38_197
*1653 FILLER_0_38_201
*1654 FILLER_0_38_22
*1655 FILLER_0_38_223
*1656 FILLER_0_38_229
*1657 FILLER_0_38_259
*1658 FILLER_0_38_279
*1659 FILLER_0_38_288
*1660 FILLER_0_38_3
*1661 FILLER_0_38_306
*1662 FILLER_0_38_32
*1663 FILLER_0_38_326
*1664 FILLER_0_38_337