*SPEF "ieee 1481-1999"
*DESIGN "tt_um_AES"
*DATE "11:11:11 Fri 11 11, 1111"
*VENDOR "OpenRCX"
*PROGRAM "Parallel Extraction"
*VERSION "1.0"
*DESIGN_FLOW "NAME_SCOPE LOCAL" "PIN_CAP NONE"
*DIVIDER /
*DELIMITER :
*BUS_DELIMITER []
*T_UNIT 1 NS
*C_UNIT 1 PF
*R_UNIT 1 OHM
*L_UNIT 1 HENRY

*NAME_MAP
*3 clk
*4 ena
*5 rst_n
*6 ui_in[0]
*7 ui_in[1]
*8 ui_in[2]
*9 ui_in[3]
*10 ui_in[4]
*11 ui_in[5]
*12 ui_in[6]
*13 ui_in[7]
*14 uio_in[0]
*15 uio_in[1]
*16 uio_in[2]
*17 uio_in[3]
*18 uio_in[4]
*19 uio_in[5]
*20 uio_in[6]
*21 uio_in[7]
*22 net18
*23 net19
*24 net20
*25 net21
*26 net22
*27 net23
*28 net24
*29 net25
*30 net26
*31 net27
*32 net28
*33 net29
*34 net30
*35 net31
*36 net32
*37 net33
*38 uo_out[0]
*39 uo_out[1]
*40 uo_out[2]
*41 uo_out[3]
*42 uo_out[4]
*43 uo_out[5]
*44 uo_out[6]
*45 uo_out[7]
*46 _0000_
*47 _0001_
*48 _0002_
*49 _0003_
*50 _0004_
*51 _0005_
*52 _0006_
*53 _0007_
*54 _0008_
*55 _0009_
*56 _0010_
*57 _0011_
*58 _0012_
*59 _0013_
*60 _0014_
*61 _0015_
*62 _0016_
*63 _0017_
*64 _0018_
*65 _0019_
*66 _0020_
*67 _0021_
*68 _0022_
*69 _0023_
*70 _0024_
*71 _0025_
*72 _0026_
*73 _0027_
*74 _0028_
*75 _0029_
*76 _0030_
*77 _0031_
*78 _0032_
*79 _0033_
*80 _0034_
*81 _0035_
*82 _0036_
*83 _0037_
*84 _0038_
*85 _0039_
*86 _0040_
*87 _0041_
*88 _0042_
*89 _0043_
*90 _0044_
*91 _0045_
*92 _0046_
*93 _0047_
*94 _0048_
*95 _0049_
*96 _0050_
*97 _0051_
*98 _0052_
*99 _0053_
*100 _0054_
*101 _0055_
*102 _0056_
*103 _0057_
*104 _0058_
*105 _0059_
*106 _0060_
*107 _0061_
*108 _0062_
*109 _0063_
*110 _0064_
*111 _0065_
*112 _0066_
*113 _0067_
*114 _0068_
*115 _0069_
*116 _0070_
*117 _0071_
*118 _0072_
*119 _0073_
*120 _0074_
*121 _0075_
*122 _0076_
*123 _0077_
*124 _0078_
*125 _0079_
*126 _0080_
*127 _0081_
*128 _0082_
*129 _0083_
*130 _0084_
*131 _0085_
*132 _0086_
*133 _0087_
*134 _0088_
*135 _0089_
*136 _0090_
*137 _0091_
*138 _0092_
*139 _0093_
*140 _0094_
*141 _0095_
*142 _0096_
*143 _0097_
*144 _0098_
*145 _0099_
*146 _0100_
*147 _0101_
*148 _0102_
*149 _0103_
*150 _0104_
*151 _0105_
*152 _0106_
*153 _0107_
*154 _0108_
*155 _0109_
*156 _0110_
*157 _0111_
*158 _0112_
*159 _0113_
*160 _0114_
*161 _0115_
*162 _0116_
*163 _0117_
*164 _0118_
*165 _0119_
*166 _0120_
*167 _0121_
*168 _0122_
*169 _0123_
*170 _0124_
*171 _0125_
*172 _0126_
*173 _0127_
*174 _0128_
*175 _0129_
*176 _0130_
*177 _0131_
*178 _0132_
*179 _0133_
*180 _0134_
*181 _0135_
*182 _0136_
*183 _0137_
*184 _0138_
*185 _0139_
*186 _0140_
*187 _0141_
*188 _0142_
*189 _0143_
*190 _0144_
*191 _0145_
*192 _0146_
*193 _0147_
*194 _0148_
*195 _0149_
*196 _0150_
*197 _0151_
*198 _0152_
*199 _0153_
*200 _0154_
*201 _0155_
*202 _0156_
*203 _0157_
*204 _0158_
*205 _0159_
*206 _0160_
*207 _0161_
*208 _0162_
*209 _0163_
*210 _0164_
*211 _0165_
*212 _0166_
*213 _0167_
*214 _0168_
*215 _0169_
*216 _0170_
*217 _0171_
*218 _0172_
*219 _0173_
*220 _0174_
*221 _0175_
*222 _0176_
*223 _0177_
*224 _0178_
*225 _0179_
*226 _0180_
*227 _0181_
*228 _0182_
*229 _0183_
*230 _0184_
*231 _0185_
*232 _0186_
*233 _0187_
*234 _0188_
*235 _0189_
*236 _0190_
*237 _0191_
*238 _0192_
*239 _0193_
*240 _0194_
*241 _0195_
*242 _0196_
*243 _0197_
*244 _0198_
*245 _0199_
*246 _0200_
*247 _0201_
*248 _0202_
*249 _0203_
*250 _0204_
*251 _0205_
*252 _0206_
*253 _0207_
*254 _0208_
*255 _0209_
*256 _0210_
*257 _0211_
*258 _0212_
*259 _0213_
*260 _0214_
*261 _0215_
*262 _0216_
*263 _0217_
*264 _0218_
*265 _0219_
*266 _0220_
*267 _0221_
*268 _0222_
*269 _0223_
*270 _0224_
*271 _0225_
*272 _0226_
*273 _0227_
*274 _0228_
*275 _0229_
*276 _0230_
*277 _0231_
*278 _0232_
*279 _0233_
*280 _0234_
*281 _0235_
*282 _0236_
*283 _0237_
*284 _0238_
*285 _0239_
*286 _0240_
*287 _0241_
*288 _0242_
*289 _0243_
*290 _0244_
*291 _0245_
*292 _0246_
*293 _0247_
*294 _0248_
*295 _0249_
*296 _0250_
*297 _0251_
*298 _0252_
*299 _0253_
*300 _0254_
*301 _0255_
*302 _0256_
*303 _0257_
*304 _0258_
*305 _0259_
*306 _0260_
*307 _0261_
*308 _0262_
*309 _0263_
*310 _0264_
*311 _0265_
*312 _0266_
*313 _0267_
*314 _0268_
*315 _0269_
*316 _0270_
*317 _0271_
*318 _0272_
*319 _0273_
*320 _0274_
*321 _0275_
*322 _0276_
*323 _0277_
*324 _0278_
*325 _0279_
*326 _0280_
*327 _0281_
*328 _0282_
*329 _0283_
*330 _0284_
*331 _0285_
*332 _0286_
*333 _0287_
*334 _0288_
*335 _0289_
*336 _0290_
*337 _0291_
*338 _0292_
*339 _0293_
*340 _0294_
*341 _0295_
*342 _0296_
*343 _0297_
*344 _0298_
*345 _0299_
*346 _0300_
*347 _0301_
*348 _0302_
*349 _0303_
*350 _0304_
*351 _0305_
*352 _0306_
*353 _0307_
*354 _0308_
*355 _0309_
*356 _0310_
*357 _0311_
*358 _0312_
*359 _0313_
*360 _0314_
*361 _0315_
*362 _0316_
*363 _0317_
*364 _0318_
*365 _0319_
*366 _0320_
*367 _0321_
*368 _0322_
*369 _0323_
*370 _0324_
*371 _0325_
*372 _0326_
*373 _0327_
*374 _0328_
*375 _0329_
*376 _0330_
*377 _0331_
*378 _0332_
*379 _0333_
*380 _0334_
*381 _0335_
*382 _0336_
*383 _0337_
*384 _0338_
*385 _0339_
*386 _0340_
*387 _0341_
*388 _0342_
*389 _0343_
*390 _0344_
*391 _0345_
*392 _0346_
*393 _0347_
*394 _0348_
*395 _0349_
*396 _0350_
*397 _0351_
*398 _0352_
*399 _0353_
*400 _0354_
*401 _0355_
*402 _0356_
*403 _0357_
*404 _0358_
*405 _0359_
*406 _0360_
*407 _0361_
*408 _0362_
*409 _0363_
*410 _0364_
*411 _0365_
*412 _0366_
*413 _0367_
*414 _0368_
*415 _0369_
*416 _0370_
*417 _0371_
*418 _0372_
*419 _0373_
*420 _0374_
*421 _0375_
*422 _0376_
*423 _0377_
*424 _0378_
*425 _0379_
*426 _0380_
*427 _0381_
*428 _0382_
*429 _0383_
*430 _0384_
*431 _0385_
*432 _0386_
*433 _0387_
*434 _0388_
*435 _0389_
*436 _0390_
*437 _0391_
*438 _0392_
*439 _0393_
*440 _0394_
*441 _0395_
*442 _0396_
*443 _0397_
*444 _0398_
*445 _0399_
*446 _0400_
*447 _0401_
*448 _0402_
*449 _0403_
*450 _0404_
*451 _0405_
*452 _0406_
*453 _0407_
*454 _0408_
*455 _0409_
*456 _0410_
*457 _0411_
*458 _0412_
*459 _0413_
*460 _0414_
*461 _0415_
*462 _0416_
*463 _0417_
*464 _0418_
*465 _0419_
*466 _0420_
*467 _0421_
*468 _0422_
*469 _0423_
*470 _0424_
*471 _0425_
*472 _0426_
*473 _0427_
*474 _0428_
*475 _0429_
*476 _0430_
*477 _0431_
*478 _0432_
*479 _0433_
*480 _0434_
*481 _0435_
*482 _0436_
*483 _0437_
*484 _0438_
*485 _0439_
*486 _0440_
*487 _0441_
*488 _0442_
*489 _0443_
*490 _0444_
*491 _0445_
*492 _0446_
*493 _0447_
*494 _0448_
*495 _0449_
*496 _0450_
*497 _0451_
*498 _0452_
*499 _0453_
*500 _0454_
*501 _0455_
*502 _0456_
*503 _0457_
*504 _0458_
*505 _0459_
*506 _0460_
*507 _0461_
*508 _0462_
*509 _0463_
*510 _0464_
*511 _0465_
*512 _0466_
*513 _0467_
*514 _0468_
*515 _0469_
*516 _0470_
*517 _0471_
*518 _0472_
*519 _0473_
*520 _0474_
*521 _0475_
*522 _0476_
*523 _0477_
*524 _0478_
*525 _0479_
*526 _0480_
*527 _0481_
*528 _0482_
*529 _0483_
*530 _0484_
*531 _0485_
*532 _0486_
*533 _0487_
*534 _0488_
*535 _0489_
*536 _0490_
*537 _0491_
*538 _0492_
*539 _0493_
*540 _0494_
*541 _0495_
*542 _0496_
*543 _0497_
*544 _0498_
*545 _0499_
*546 _0500_
*547 _0501_
*548 _0502_
*549 _0503_
*550 _0504_
*551 _0505_
*552 _0506_
*553 _0507_
*554 _0508_
*555 _0509_
*556 _0510_
*557 _0511_
*558 _0512_
*559 _0513_
*560 _0514_
*561 _0515_
*562 _0516_
*563 _0517_
*564 _0518_
*565 _0519_
*566 _0520_
*567 _0521_
*568 _0522_
*569 _0523_
*570 _0524_
*571 _0525_
*572 _0526_
*573 _0527_
*574 _0528_
*575 _0529_
*576 _0530_
*577 _0531_
*578 _0532_
*579 _0533_
*580 _0534_
*581 _0535_
*582 _0536_
*583 _0537_
*584 _0538_
*585 _0539_
*586 _0540_
*587 _0541_
*588 _0542_
*589 _0543_
*590 _0544_
*591 _0545_
*592 _0546_
*593 _0547_
*594 _0548_
*595 _0549_
*596 _0550_
*597 _0551_
*598 _0552_
*599 _0553_
*600 _0554_
*601 _0555_
*602 _0556_
*603 _0557_
*604 _0558_
*605 _0559_
*606 _0560_
*607 _0561_
*608 _0562_
*609 _0563_
*610 _0564_
*611 _0565_
*612 _0566_
*613 _0567_
*614 _0568_
*615 _0569_
*616 _0570_
*617 _0571_
*618 _0572_
*619 _0573_
*620 _0574_
*621 _0575_
*622 _0576_
*623 _0577_
*624 _0578_
*625 _0579_
*626 _0580_
*627 _0581_
*628 _0582_
*629 _0583_
*630 _0584_
*631 _0585_
*632 _0586_
*633 _0587_
*634 _0588_
*635 _0589_
*636 _0590_
*637 _0591_
*638 _0592_
*639 _0593_
*640 _0594_
*641 _0595_
*642 _0596_
*643 _0597_
*644 _0598_
*645 _0599_
*646 _0600_
*647 _0601_
*648 _0602_
*649 _0603_
*650 _0604_
*651 _0605_
*652 _0606_
*653 _0607_
*654 _0608_
*655 _0609_
*656 _0610_
*657 _0611_
*658 _0612_
*659 _0613_
*660 _0614_
*661 _0615_
*662 _0616_
*663 _0617_
*664 _0618_
*665 _0619_
*666 _0620_
*667 _0621_
*668 _0622_
*669 _0623_
*670 _0624_
*671 _0625_
*672 _0626_
*673 _0627_
*674 _0628_
*675 _0629_
*676 _0630_
*677 _0631_
*678 _0632_
*679 _0633_
*680 _0634_
*681 _0635_
*682 _0636_
*683 _0637_
*684 _0638_
*685 _0639_
*686 _0640_
*687 _0641_
*688 _0642_
*689 _0643_
*690 _0644_
*691 _0645_
*692 _0646_
*693 _0647_
*694 _0648_
*695 _0649_
*696 _0650_
*697 _0651_
*698 _0652_
*699 _0653_
*700 _0654_
*701 _0655_
*702 _0656_
*703 _0657_
*704 _0658_
*705 _0659_
*706 _0660_
*707 _0661_
*708 _0662_
*709 _0663_
*710 _0664_
*711 _0665_
*712 _0666_
*713 _0667_
*714 _0668_
*715 _0669_
*716 _0670_
*717 _0671_
*718 _0672_
*719 _0673_
*720 _0674_
*721 _0675_
*722 _0676_
*723 _0677_
*724 _0678_
*725 _0679_
*726 _0680_
*727 _0681_
*728 _0682_
*729 _0683_
*730 _0684_
*731 _0685_
*732 _0686_
*733 _0687_
*734 _0688_
*735 _0689_
*736 _0690_
*737 _0691_
*738 _0692_
*739 _0693_
*740 _0694_
*741 _0695_
*742 clknet_0_clk
*743 clknet_1_0__leaf_clk
*744 clknet_1_1__leaf_clk
*745 clknet_leaf_0_clk
*746 clknet_leaf_10_clk
*747 clknet_leaf_11_clk
*748 clknet_leaf_12_clk
*749 clknet_leaf_13_clk
*750 clknet_leaf_14_clk
*751 clknet_leaf_15_clk
*752 clknet_leaf_16_clk
*753 clknet_leaf_17_clk
*754 clknet_leaf_18_clk
*755 clknet_leaf_19_clk
*756 clknet_leaf_1_clk
*757 clknet_leaf_2_clk
*758 clknet_leaf_3_clk
*759 clknet_leaf_4_clk
*760 clknet_leaf_5_clk
*761 clknet_leaf_6_clk
*762 clknet_leaf_7_clk
*763 clknet_leaf_8_clk
*764 clknet_leaf_9_clk
*765 cnt\[0\]
*766 cnt\[1\]
*767 cnt\[2\]
*768 cnt\[3\]
*769 d_out_w_2\[0\]
*770 d_out_w_2\[1\]
*771 d_out_w_2\[2\]
*772 d_out_w_2\[3\]
*773 d_out_w_2\[4\]
*774 d_out_w_2\[5\]
*775 d_out_w_2\[6\]
*776 d_out_w_2\[7\]
*777 d_vld
*778 data_path\.MC\.dout0\[0\]
*779 data_path\.MC\.dout0\[1\]
*780 data_path\.MC\.dout0\[2\]
*781 data_path\.MC\.dout0\[3\]
*782 data_path\.MC\.dout0\[4\]
*783 data_path\.MC\.dout0\[5\]
*784 data_path\.MC\.dout0\[6\]
*785 data_path\.MC\.dout0\[7\]
*786 data_path\.MC\.dout1\[0\]
*787 data_path\.MC\.dout1\[1\]
*788 data_path\.MC\.dout1\[2\]
*789 data_path\.MC\.dout1\[3\]
*790 data_path\.MC\.dout1\[4\]
*791 data_path\.MC\.dout1\[5\]
*792 data_path\.MC\.dout1\[6\]
*793 data_path\.MC\.dout1\[7\]
*794 data_path\.MC\.dout2\[0\]
*795 data_path\.MC\.dout2\[1\]
*796 data_path\.MC\.dout2\[2\]
*797 data_path\.MC\.dout2\[3\]
*798 data_path\.MC\.dout2\[4\]
*799 data_path\.MC\.dout2\[5\]
*800 data_path\.MC\.dout2\[6\]
*801 data_path\.MC\.dout2\[7\]
*802 data_path\.MC\.dout3\[0\]
*803 data_path\.MC\.dout3\[1\]
*804 data_path\.MC\.dout3\[2\]
*805 data_path\.MC\.dout3\[3\]
*806 data_path\.MC\.dout3\[4\]
*807 data_path\.MC\.dout3\[5\]
*808 data_path\.MC\.dout3\[6\]
*809 data_path\.MC\.dout3\[7\]
*810 data_path\.MC\.en\[0\]
*811 data_path\.PS\.mux0\.In2\[0\]
*812 data_path\.PS\.mux0\.In2\[1\]
*813 data_path\.PS\.mux0\.In2\[2\]
*814 data_path\.PS\.mux0\.In2\[3\]
*815 data_path\.PS\.mux0\.In2\[4\]
*816 data_path\.PS\.mux0\.In2\[5\]
*817 data_path\.PS\.mux0\.In2\[6\]
*818 data_path\.PS\.mux0\.In2\[7\]
*819 data_path\.PS\.mux0\.sel
*820 data_path\.PS\.mux1\.In2\[0\]
*821 data_path\.PS\.mux1\.In2\[1\]
*822 data_path\.PS\.mux1\.In2\[2\]
*823 data_path\.PS\.mux1\.In2\[3\]
*824 data_path\.PS\.mux1\.In2\[4\]
*825 data_path\.PS\.mux1\.In2\[5\]
*826 data_path\.PS\.mux1\.In2\[6\]
*827 data_path\.PS\.mux1\.In2\[7\]
*828 data_path\.PS\.mux1\.Out\[0\]
*829 data_path\.PS\.mux1\.Out\[1\]
*830 data_path\.PS\.mux1\.Out\[2\]
*831 data_path\.PS\.mux1\.Out\[3\]
*832 data_path\.PS\.mux1\.Out\[4\]
*833 data_path\.PS\.mux1\.Out\[5\]
*834 data_path\.PS\.mux1\.Out\[6\]
*835 data_path\.PS\.mux1\.Out\[7\]
*836 data_path\.PS\.mux2\.In2\[0\]
*837 data_path\.PS\.mux2\.In2\[1\]
*838 data_path\.PS\.mux2\.In2\[2\]
*839 data_path\.PS\.mux2\.In2\[3\]
*840 data_path\.PS\.mux2\.In2\[4\]
*841 data_path\.PS\.mux2\.In2\[5\]
*842 data_path\.PS\.mux2\.In2\[6\]
*843 data_path\.PS\.mux2\.In2\[7\]
*844 data_path\.PS\.mux2\.Out\[0\]
*845 data_path\.PS\.mux2\.Out\[1\]
*846 data_path\.PS\.mux2\.Out\[2\]
*847 data_path\.PS\.mux2\.Out\[3\]
*848 data_path\.PS\.mux2\.Out\[4\]
*849 data_path\.PS\.mux2\.Out\[5\]
*850 data_path\.PS\.mux2\.Out\[6\]
*851 data_path\.PS\.mux2\.Out\[7\]
*852 data_path\.PS\.mux3\.In2\[0\]
*853 data_path\.PS\.mux3\.In2\[1\]
*854 data_path\.PS\.mux3\.In2\[2\]
*855 data_path\.PS\.mux3\.In2\[3\]
*856 data_path\.PS\.mux3\.In2\[4\]
*857 data_path\.PS\.mux3\.In2\[5\]
*858 data_path\.PS\.mux3\.In2\[6\]
*859 data_path\.PS\.mux3\.In2\[7\]
*860 data_path\.PS\.mux3\.Out\[0\]
*861 data_path\.PS\.mux3\.Out\[1\]
*862 data_path\.PS\.mux3\.Out\[2\]
*863 data_path\.PS\.mux3\.Out\[3\]
*864 data_path\.PS\.mux3\.Out\[4\]
*865 data_path\.PS\.mux3\.Out\[5\]
*866 data_path\.PS\.mux3\.Out\[6\]
*867 data_path\.PS\.mux3\.Out\[7\]
*868 data_path\.SR\.c3\[0\]
*869 data_path\.SR\.c3\[1\]
*870 data_path\.SR\.mux0\.In1\[0\]
*871 data_path\.SR\.mux0\.In1\[1\]
*872 data_path\.SR\.mux0\.In1\[2\]
*873 data_path\.SR\.mux0\.In1\[3\]
*874 data_path\.SR\.mux0\.In1\[4\]
*875 data_path\.SR\.mux0\.In1\[5\]
*876 data_path\.SR\.mux0\.In1\[6\]
*877 data_path\.SR\.mux0\.In1\[7\]
*878 data_path\.SR\.mux0\.Out\[0\]
*879 data_path\.SR\.mux0\.Out\[1\]
*880 data_path\.SR\.mux0\.Out\[2\]
*881 data_path\.SR\.mux0\.Out\[3\]
*882 data_path\.SR\.mux0\.Out\[4\]
*883 data_path\.SR\.mux0\.Out\[5\]
*884 data_path\.SR\.mux0\.Out\[6\]
*885 data_path\.SR\.mux0\.Out\[7\]
*886 data_path\.SR\.mux1\.In2\[0\]
*887 data_path\.SR\.mux1\.In2\[1\]
*888 data_path\.SR\.mux1\.In2\[2\]
*889 data_path\.SR\.mux1\.In2\[3\]
*890 data_path\.SR\.mux1\.In2\[4\]
*891 data_path\.SR\.mux1\.In2\[5\]
*892 data_path\.SR\.mux1\.In2\[6\]
*893 data_path\.SR\.mux1\.In2\[7\]
*894 data_path\.SR\.mux1\.Out\[0\]
*895 data_path\.SR\.mux1\.Out\[1\]
*896 data_path\.SR\.mux1\.Out\[2\]
*897 data_path\.SR\.mux1\.Out\[3\]
*898 data_path\.SR\.mux1\.Out\[4\]
*899 data_path\.SR\.mux1\.Out\[5\]
*900 data_path\.SR\.mux1\.Out\[6\]
*901 data_path\.SR\.mux1\.Out\[7\]
*902 data_path\.SR\.mux2\.In2\[0\]
*903 data_path\.SR\.mux2\.In2\[1\]
*904 data_path\.SR\.mux2\.In2\[2\]
*905 data_path\.SR\.mux2\.In2\[3\]
*906 data_path\.SR\.mux2\.In2\[4\]
*907 data_path\.SR\.mux2\.In2\[5\]
*908 data_path\.SR\.mux2\.In2\[6\]
*909 data_path\.SR\.mux2\.In2\[7\]
*910 data_path\.SR\.mux2\.Out\[0\]
*911 data_path\.SR\.mux2\.Out\[1\]
*912 data_path\.SR\.mux2\.Out\[2\]
*913 data_path\.SR\.mux2\.Out\[3\]
*914 data_path\.SR\.mux2\.Out\[4\]
*915 data_path\.SR\.mux2\.Out\[5\]
*916 data_path\.SR\.mux2\.Out\[6\]
*917 data_path\.SR\.mux2\.Out\[7\]
*918 data_path\.SR\.reg10\[0\]
*919 data_path\.SR\.reg10\[1\]
*920 data_path\.SR\.reg10\[2\]
*921 data_path\.SR\.reg10\[3\]
*922 data_path\.SR\.reg10\[4\]
*923 data_path\.SR\.reg10\[5\]
*924 data_path\.SR\.reg10\[6\]
*925 data_path\.SR\.reg10\[7\]
*926 data_path\.SR\.reg11\[0\]
*927 data_path\.SR\.reg11\[1\]
*928 data_path\.SR\.reg11\[2\]
*929 data_path\.SR\.reg11\[3\]
*930 data_path\.SR\.reg11\[4\]
*931 data_path\.SR\.reg11\[5\]
*932 data_path\.SR\.reg11\[6\]
*933 data_path\.SR\.reg11\[7\]
*934 data_path\.SR\.reg12\[0\]
*935 data_path\.SR\.reg12\[1\]
*936 data_path\.SR\.reg12\[2\]
*937 data_path\.SR\.reg12\[3\]
*938 data_path\.SR\.reg12\[4\]
*939 data_path\.SR\.reg12\[5\]
*940 data_path\.SR\.reg12\[6\]
*941 data_path\.SR\.reg12\[7\]
*942 data_path\.SR\.reg2\[0\]
*943 data_path\.SR\.reg2\[1\]
*944 data_path\.SR\.reg2\[2\]
*945 data_path\.SR\.reg2\[3\]
*946 data_path\.SR\.reg2\[4\]
*947 data_path\.SR\.reg2\[5\]
*948 data_path\.SR\.reg2\[6\]
*949 data_path\.SR\.reg2\[7\]
*950 data_path\.SR\.reg3\[0\]
*951 data_path\.SR\.reg3\[1\]
*952 data_path\.SR\.reg3\[2\]
*953 data_path\.SR\.reg3\[3\]
*954 data_path\.SR\.reg3\[4\]
*955 data_path\.SR\.reg3\[5\]
*956 data_path\.SR\.reg3\[6\]
*957 data_path\.SR\.reg3\[7\]
*958 data_path\.SR\.reg4\[0\]
*959 data_path\.SR\.reg4\[1\]
*960 data_path\.SR\.reg4\[2\]
*961 data_path\.SR\.reg4\[3\]
*962 data_path\.SR\.reg4\[4\]
*963 data_path\.SR\.reg4\[5\]
*964 data_path\.SR\.reg4\[6\]
*965 data_path\.SR\.reg4\[7\]
*966 data_path\.SR\.reg6\[0\]
*967 data_path\.SR\.reg6\[1\]
*968 data_path\.SR\.reg6\[2\]
*969 data_path\.SR\.reg6\[3\]
*970 data_path\.SR\.reg6\[4\]
*971 data_path\.SR\.reg6\[5\]
*972 data_path\.SR\.reg6\[6\]
*973 data_path\.SR\.reg6\[7\]
*974 data_path\.SR\.reg7\[0\]
*975 data_path\.SR\.reg7\[1\]
*976 data_path\.SR\.reg7\[2\]
*977 data_path\.SR\.reg7\[3\]
*978 data_path\.SR\.reg7\[4\]
*979 data_path\.SR\.reg7\[5\]
*980 data_path\.SR\.reg7\[6\]
*981 data_path\.SR\.reg7\[7\]
*982 data_path\.SR\.reg8\[0\]
*983 data_path\.SR\.reg8\[1\]
*984 data_path\.SR\.reg8\[2\]
*985 data_path\.SR\.reg8\[3\]
*986 data_path\.SR\.reg8\[4\]
*987 data_path\.SR\.reg8\[5\]
*988 data_path\.SR\.reg8\[6\]
*989 data_path\.SR\.reg8\[7\]
*990 data_path\.d_out\[0\]
*991 data_path\.d_out\[1\]
*992 data_path\.d_out\[2\]
*993 data_path\.d_out\[3\]
*994 data_path\.d_out\[4\]
*995 data_path\.d_out\[5\]
*996 data_path\.d_out\[6\]
*997 data_path\.d_out\[7\]
*998 data_path\.rk_delayed_out\[0\]
*999 data_path\.rk_delayed_out\[1\]
*1000 data_path\.rk_delayed_out\[2\]
*1001 data_path\.rk_delayed_out\[3\]
*1002 data_path\.rk_delayed_out\[4\]
*1003 data_path\.rk_delayed_out\[5\]
*1004 data_path\.rk_delayed_out\[6\]
*1005 data_path\.rk_delayed_out\[7\]
*1006 key\.mux_bit\.In2\[0\]
*1007 key\.mux_bit\.In2\[1\]
*1008 key\.mux_bit\.In2\[2\]
*1009 key\.mux_bit\.In2\[3\]
*1010 key\.mux_bit\.In2\[4\]
*1011 key\.mux_bit\.In2\[5\]
*1012 key\.mux_bit\.In2\[6\]
*1013 key\.mux_bit\.In2\[7\]
*1014 key\.mux_bit\.Out\[0\]
*1015 key\.mux_bit\.Out\[1\]
*1016 key\.mux_bit\.Out\[2\]
*1017 key\.mux_bit\.Out\[3\]
*1018 key\.mux_bit\.Out\[4\]
*1019 key\.mux_bit\.Out\[5\]
*1020 key\.mux_bit\.Out\[6\]
*1021 key\.mux_bit\.Out\[7\]
*1022 key\.mux_in\.Out\[0\]
*1023 key\.mux_in\.Out\[1\]
*1024 key\.mux_in\.Out\[2\]
*1025 key\.mux_in\.Out\[3\]
*1026 key\.mux_in\.Out\[4\]
*1027 key\.mux_in\.Out\[5\]
*1028 key\.mux_in\.Out\[6\]
*1029 key\.mux_in\.Out\[7\]
*1030 key\.mux_last_out\.In1\[0\]
*1031 key\.mux_last_out\.In1\[1\]
*1032 key\.mux_last_out\.In1\[2\]
*1033 key\.mux_last_out\.In1\[3\]
*1034 key\.mux_last_out\.In1\[4\]
*1035 key\.mux_last_out\.In1\[5\]
*1036 key\.mux_last_out\.In1\[6\]
*1037 key\.mux_last_out\.In1\[7\]
*1038 key\.mux_sbox\.In1\[0\]
*1039 key\.mux_sbox\.In1\[1\]
*1040 key\.mux_sbox\.In1\[2\]
*1041 key\.mux_sbox\.In1\[3\]
*1042 key\.mux_sbox\.In1\[4\]
*1043 key\.mux_sbox\.In1\[5\]
*1044 key\.mux_sbox\.In1\[6\]
*1045 key\.mux_sbox\.In1\[7\]
*1046 key\.mux_sbox\.In2\[0\]
*1047 key\.mux_sbox\.In2\[1\]
*1048 key\.mux_sbox\.In2\[2\]
*1049 key\.mux_sbox\.In2\[3\]
*1050 key\.mux_sbox\.In2\[4\]
*1051 key\.mux_sbox\.In2\[5\]
*1052 key\.mux_sbox\.In2\[6\]
*1053 key\.mux_sbox\.In2\[7\]
*1054 key\.r10\[0\]
*1055 key\.r10\[1\]
*1056 key\.r10\[2\]
*1057 key\.r10\[3\]
*1058 key\.r10\[4\]
*1059 key\.r10\[5\]
*1060 key\.r10\[6\]
*1061 key\.r10\[7\]
*1062 key\.r11\[0\]
*1063 key\.r11\[1\]
*1064 key\.r11\[2\]
*1065 key\.r11\[3\]
*1066 key\.r11\[4\]
*1067 key\.r11\[5\]
*1068 key\.r11\[6\]
*1069 key\.r11\[7\]
*1070 key\.r14\[0\]
*1071 key\.r14\[1\]
*1072 key\.r14\[2\]
*1073 key\.r14\[3\]
*1074 key\.r14\[4\]
*1075 key\.r14\[5\]
*1076 key\.r14\[6\]
*1077 key\.r14\[7\]
*1078 key\.r15\[0\]
*1079 key\.r15\[1\]
*1080 key\.r15\[2\]
*1081 key\.r15\[3\]
*1082 key\.r15\[4\]
*1083 key\.r15\[5\]
*1084 key\.r15\[6\]
*1085 key\.r15\[7\]
*1086 key\.r1\[0\]
*1087 key\.r1\[1\]
*1088 key\.r1\[2\]
*1089 key\.r1\[3\]
*1090 key\.r1\[4\]
*1091 key\.r1\[5\]
*1092 key\.r1\[6\]
*1093 key\.r1\[7\]
*1094 key\.r2\[0\]
*1095 key\.r2\[1\]
*1096 key\.r2\[2\]
*1097 key\.r2\[3\]
*1098 key\.r2\[4\]
*1099 key\.r2\[5\]
*1100 key\.r2\[6\]
*1101 key\.r2\[7\]
*1102 key\.r3\[0\]
*1103 key\.r3\[1\]
*1104 key\.r3\[2\]
*1105 key\.r3\[3\]
*1106 key\.r3\[4\]
*1107 key\.r3\[5\]
*1108 key\.r3\[6\]
*1109 key\.r3\[7\]
*1110 key\.r5\[0\]
*1111 key\.r5\[1\]
*1112 key\.r5\[2\]
*1113 key\.r5\[3\]
*1114 key\.r5\[4\]
*1115 key\.r5\[5\]
*1116 key\.r5\[6\]
*1117 key\.r5\[7\]
*1118 key\.r6\[0\]
*1119 key\.r6\[1\]
*1120 key\.r6\[2\]
*1121 key\.r6\[3\]
*1122 key\.r6\[4\]
*1123 key\.r6\[5\]
*1124 key\.r6\[6\]
*1125 key\.r6\[7\]
*1126 key\.r7\[0\]
*1127 key\.r7\[1\]
*1128 key\.r7\[2\]
*1129 key\.r7\[3\]
*1130 key\.r7\[4\]
*1131 key\.r7\[5\]
*1132 key\.r7\[6\]
*1133 key\.r7\[7\]
*1134 key\.r8\[0\]
*1135 key\.r8\[1\]
*1136 key\.r8\[2\]
*1137 key\.r8\[3\]
*1138 key\.r8\[4\]
*1139 key\.r8\[5\]
*1140 key\.r8\[6\]
*1141 key\.r8\[7\]
*1142 key\.r9\[0\]
*1143 key\.r9\[1\]
*1144 key\.r9\[2\]
*1145 key\.r9\[3\]
*1146 key\.r9\[4\]
*1147 key\.r9\[5\]
*1148 key\.r9\[6\]
*1149 key\.r9\[7\]
*1150 key\.rcon_en\[0\]
*1151 key\.rcon_num\[0\]
*1152 key\.rcon_num\[1\]
*1153 key\.rcon_num\[2\]
*1154 key\.rcon_num\[3\]
*1155 key\.rcon_num\[4\]
*1156 key\.rcon_num\[5\]
*1157 key\.rcon_num\[6\]
*1158 key\.rcon_num\[7\]
*1159 key\.round_cnt\[0\]
*1160 key\.round_cnt\[1\]
*1161 key\.round_cnt\[2\]
*1162 key\.round_cnt\[3\]
*1163 net1
*1164 net10
*1165 net100
*1166 net101
*1167 net102
*1168 net103
*1169 net104
*1170 net105
*1171 net106
*1172 net107
*1173 net108
*1174 net109
*1175 net11
*1176 net110
*1177 net111
*1178 net112
*1179 net113
*1180 net114
*1181 net115
*1182 net116
*1183 net117
*1184 net118
*1185 net119
*1186 net12
*1187 net120
*1188 net121
*1189 net122
*1190 net123
*1191 net124
*1192 net125
*1193 net126
*1194 net127
*1195 net128
*1196 net129
*1197 net13
*1198 net130
*1199 net131
*1200 net132
*1201 net133
*1202 net134
*1203 net135
*1204 net136
*1205 net137
*1206 net138
*1207 net139
*1208 net14
*1209 net140
*1210 net141
*1211 net142
*1212 net143
*1213 net144
*1214 net145
*1215 net146
*1216 net147
*1217 net148
*1218 net149
*1219 net15
*1220 net150
*1221 net151
*1222 net152
*1223 net153
*1224 net154
*1225 net155
*1226 net156
*1227 net157
*1228 net158
*1229 net159
*1230 net16
*1231 net160
*1232 net161
*1233 net162
*1234 net163
*1235 net164
*1236 net165
*1237 net166
*1238 net167
*1239 net168
*1240 net169
*1241 net17
*1242 net170
*1243 net171
*1244 net172
*1245 net173
*1246 net174
*1247 net175
*1248 net176
*1249 net177
*1250 net178
*1251 net179
*1252 net180
*1253 net181
*1254 net182
*1255 net183
*1256 net184
*1257 net185
*1258 net186
*1259 net187
*1260 net188
*1261 net189
*1262 net190
*1263 net191
*1264 net192
*1265 net193
*1266 net194
*1267 net195
*1268 net196
*1269 net197
*1270 net198
*1271 net199
*1272 net2
*1273 net200
*1274 net201
*1275 net202
*1276 net203
*1277 net204
*1278 net205
*1279 net206
*1280 net207
*1281 net208
*1282 net209
*1283 net210
*1284 net211
*1285 net212
*1286 net213
*1287 net214
*1288 net215
*1289 net216
*1290 net217
*1291 net218
*1292 net219
*1293 net220
*1294 net221
*1295 net222
*1296 net223
*1297 net224
*1298 net225
*1299 net226
*1300 net227
*1301 net228
*1302 net229
*1303 net230
*1304 net231
*1305 net232
*1306 net233
*1307 net234
*1308 net235
*1309 net236
*1310 net237
*1311 net238
*1312 net239
*1313 net240
*1314 net241
*1315 net242
*1316 net243
*1317 net244
*1318 net245
*1319 net246
*1320 net247
*1321 net248
*1322 net249
*1323 net250
*1324 net251
*1325 net252
*1326 net253
*1327 net254
*1328 net255
*1329 net256
*1330 net257
*1331 net258
*1332 net259
*1333 net260
*1334 net261
*1335 net262
*1336 net263
*1337 net264
*1338 net265
*1339 net266
*1340 net267
*1341 net268
*1342 net269
*1343 net270
*1344 net271
*1345 net272
*1346 net273
*1347 net274
*1348 net275
*1349 net276
*1350 net277
*1351 net278
*1352 net279
*1353 net280
*1354 net281
*1355 net282
*1356 net283
*1357 net284
*1358 net285
*1359 net286
*1360 net287
*1361 net288
*1362 net289
*1363 net290
*1364 net291
*1365 net292
*1366 net293
*1367 net294
*1368 net295
*1369 net296
*1370 net297
*1371 net298
*1372 net299
*1373 net3
*1374 net300
*1375 net301
*1376 net302
*1377 net303
*1378 net304
*1379 net305
*1380 net306
*1381 net307
*1382 net308
*1383 net309
*1384 net310
*1385 net311
*1386 net312
*1387 net313
*1388 net314
*1389 net315
*1390 net316
*1391 net317
*1392 net318
*1393 net319
*1394 net320
*1395 net34
*1396 net35
*1397 net36
*1398 net37
*1399 net38
*1400 net39
*1401 net4
*1402 net40
*1403 net41
*1404 net42
*1405 net43
*1406 net44
*1407 net45
*1408 net46
*1409 net47
*1410 net48
*1411 net49
*1412 net5
*1413 net50
*1414 net51
*1415 net52
*1416 net53
*1417 net54
*1418 net55
*1419 net56
*1420 net57
*1421 net58
*1422 net59
*1423 net6
*1424 net60
*1425 net61
*1426 net62
*1427 net63
*1428 net64
*1429 net65
*1430 net66
*1431 net67
*1432 net68
*1433 net69
*1434 net7
*1435 net70
*1436 net71
*1437 net72
*1438 net73
*1439 net74
*1440 net75
*1441 net76
*1442 net77
*1443 net78
*1444 net79
*1445 net8
*1446 net80
*1447 net81
*1448 net82
*1449 net83
*1450 net84
*1451 net85
*1452 net86
*1453 net87
*1454 net88
*1455 net89
*1456 net9
*1457 net90
*1458 net91
*1459 net92
*1460 net93
*1461 net94
*1462 net95
*1463 net96
*1464 net97
*1465 net98
*1466 net99
*1467 round_cnt\[0\]
*1468 round_cnt\[1\]
*1469 round_cnt\[2\]
*1470 round_cnt\[3\]
*1471 state\[0\]
*1472 state\[1\]
*1473 state\[2\]
*1474 state\[4\]
*1475 state\[5\]
*1476 FILLER_0_0_109
*1477 FILLER_0_0_113
*1478 FILLER_0_0_125
*1479 FILLER_0_0_137
*1480 FILLER_0_0_141
*1481 FILLER_0_0_15
*1482 FILLER_0_0_153
*1483 FILLER_0_0_165
*1484 FILLER_0_0_169
*1485 FILLER_0_0_181
*1486 FILLER_0_0_193
*1487 FILLER_0_0_197
*1488 FILLER_0_0_209
*1489 FILLER_0_0_221
*1490 FILLER_0_0_225
*1491 FILLER_0_0_237
*1492 FILLER_0_0_249
*1493 FILLER_0_0_253
*1494 FILLER_0_0_265
*1495 FILLER_0_0_27
*1496 FILLER_0_0_277
*1497 FILLER_0_0_281
*1498 FILLER_0_0_29
*1499 FILLER_0_0_293
*1500 FILLER_0_0_3
*1501 FILLER_0_0_305
*1502 FILLER_0_0_309
*1503 FILLER_0_0_321
*1504 FILLER_0_0_333
*1505 FILLER_0_0_337
*1506 FILLER_0_0_349
*1507 FILLER_0_0_41
*1508 FILLER_0_0_53
*1509 FILLER_0_0_57
*1510 FILLER_0_0_69
*1511 FILLER_0_0_81
*1512 FILLER_0_0_85
*1513 FILLER_0_0_97
*1514 FILLER_0_10_109
*1515 FILLER_0_10_121
*1516 FILLER_0_10_133
*1517 FILLER_0_10_139
*1518 FILLER_0_10_141
*1519 FILLER_0_10_15
*1520 FILLER_0_10_153
*1521 FILLER_0_10_165
*1522 FILLER_0_10_177
*1523 FILLER_0_10_189
*1524 FILLER_0_10_195
*1525 FILLER_0_10_197
*1526 FILLER_0_10_205
*1527 FILLER_0_10_251
*1528 FILLER_0_10_27
*1529 FILLER_0_10_29
*1530 FILLER_0_10_3
*1531 FILLER_0_10_304
*1532 FILLER_0_10_333
*1533 FILLER_0_10_345
*1534 FILLER_0_10_41
*1535 FILLER_0_10_53
*1536 FILLER_0_10_65
*1537 FILLER_0_10_77
*1538 FILLER_0_10_83
*1539 FILLER_0_10_85
*1540 FILLER_0_10_97
*1541 FILLER_0_11_105
*1542 FILLER_0_11_111
*1543 FILLER_0_11_113
*1544 FILLER_0_11_125
*1545 FILLER_0_11_137
*1546 FILLER_0_11_149
*1547 FILLER_0_11_15
*1548 FILLER_0_11_161
*1549 FILLER_0_11_167
*1550 FILLER_0_11_169
*1551 FILLER_0_11_181
*1552 FILLER_0_11_193
*1553 FILLER_0_11_197
*1554 FILLER_0_11_222
*1555 FILLER_0_11_241
*1556 FILLER_0_11_27
*1557 FILLER_0_11_275
*1558 FILLER_0_11_279
*1559 FILLER_0_11_281
*1560 FILLER_0_11_297
*1561 FILLER_0_11_3
*1562 FILLER_0_11_331
*1563 FILLER_0_11_335
*1564 FILLER_0_11_337
*1565 FILLER_0_11_349
*1566 FILLER_0_11_39
*1567 FILLER_0_11_51
*1568 FILLER_0_11_55
*1569 FILLER_0_11_57
*1570 FILLER_0_11_69
*1571 FILLER_0_11_81
*1572 FILLER_0_11_93
*1573 FILLER_0_12_109
*1574 FILLER_0_12_121
*1575 FILLER_0_12_133
*1576 FILLER_0_12_139
*1577 FILLER_0_12_141
*1578 FILLER_0_12_15
*1579 FILLER_0_12_153
*1580 FILLER_0_12_165
*1581 FILLER_0_12_177
*1582 FILLER_0_12_189
*1583 FILLER_0_12_213
*1584 FILLER_0_12_230
*1585 FILLER_0_12_234
*1586 FILLER_0_12_251
*1587 FILLER_0_12_253
*1588 FILLER_0_12_259
*1589 FILLER_0_12_27
*1590 FILLER_0_12_288
*1591 FILLER_0_12_29
*1592 FILLER_0_12_3
*1593 FILLER_0_12_307
*1594 FILLER_0_12_325
*1595 FILLER_0_12_334
*1596 FILLER_0_12_346
*1597 FILLER_0_12_350
*1598 FILLER_0_12_41
*1599 FILLER_0_12_53
*1600 FILLER_0_12_65
*1601 FILLER_0_12_77
*1602 FILLER_0_12_83
*1603 FILLER_0_12_85
*1604 FILLER_0_12_97
*1605 FILLER_0_13_105
*1606 FILLER_0_13_111
*1607 FILLER_0_13_113
*1608 FILLER_0_13_125
*1609 FILLER_0_13_137
*1610 FILLER_0_13_149
*1611 FILLER_0_13_15
*1612 FILLER_0_13_161
*1613 FILLER_0_13_167
*1614 FILLER_0_13_169
*1615 FILLER_0_13_181
*1616 FILLER_0_13_193
*1617 FILLER_0_13_197
*1618 FILLER_0_13_218
*1619 FILLER_0_13_225
*1620 FILLER_0_13_252
*1621 FILLER_0_13_27
*1622 FILLER_0_13_270
*1623 FILLER_0_13_3
*1624 FILLER_0_13_329
*1625 FILLER_0_13_335
*1626 FILLER_0_13_345
*1627 FILLER_0_13_39
*1628 FILLER_0_13_51
*1629 FILLER_0_13_55
*1630 FILLER_0_13_57
*1631 FILLER_0_13_69
*1632 FILLER_0_13_81
*1633 FILLER_0_13_93
*1634 FILLER_0_14_109
*1635 FILLER_0_14_121
*1636 FILLER_0_14_133
*1637 FILLER_0_14_139
*1638 FILLER_0_14_141
*1639 FILLER_0_14_15
*1640 FILLER_0_14_153
*1641 FILLER_0_14_165
*1642 FILLER_0_14_177
*1643 FILLER_0_14_189
*1644 FILLER_0_14_195
*1645 FILLER_0_14_248
*1646 FILLER_0_14_27
*1647 FILLER_0_14_29
*1648 FILLER_0_14_3
*1649 FILLER_0_14_301
*1650 FILLER_0_14_307
*1651 FILLER_0_14_349
*1652 FILLER_0_14_41
*1653 FILLER_0_14_53
*1654 FILLER_0_14_65
*1655 FILLER_0_14_77
*1656 FILLER_0_14_83
*1657 FILLER_0_14_85
*1658 FILLER_0_14_97
*1659 FILLER_0_15_105
*1660 FILLER_0_15_111
*1661 FILLER_0_15_113
*1662 FILLER_0_15_125
*1663 FILLER_0_15_137
*1664 FILLER_0_15_149
*1665 FILLER_0_15_15
*1666 FILLER_0_15_161
*1667 FILLER_0_15_167
*1668 FILLER_0_15_169
*1669 FILLER_0_15_181
*1670 FILLER_0_15_201
*1671 FILLER_0_15_207
*1672 FILLER_0_15_225
*1673 FILLER_0_15_27
*1674 FILLER_0_15_273
*1675 FILLER_0_15_279
*1676 FILLER_0_15_281
*1677 FILLER_0_15_3
*1678 FILLER_0_15_317
*1679 FILLER_0_15_345
*1680 FILLER_0_15_39
*1681 FILLER_0_15_51
*1682 FILLER_0_15_55
*1683 FILLER_0_15_57
*1684 FILLER_0_15_69
*1685 FILLER_0_15_81
*1686 FILLER_0_15_93
*1687 FILLER_0_16_109
*1688 FILLER_0_16_121
*1689 FILLER_0_16_133
*1690 FILLER_0_16_139
*1691 FILLER_0_16_141
*1692 FILLER_0_16_15
*1693 FILLER_0_16_153
*1694 FILLER_0_16_165
*1695 FILLER_0_16_177
*1696 FILLER_0_16_189
*1697 FILLER_0_16_195
*1698 FILLER_0_16_197
*1699 FILLER_0_16_208
*1700 FILLER_0_16_249
*1701 FILLER_0_16_253
*1702 FILLER_0_16_27
*1703 FILLER_0_16_282
*1704 FILLER_0_16_29
*1705 FILLER_0_16_293
*1706 FILLER_0_16_3
*1707 FILLER_0_16_305
*1708 FILLER_0_16_349
*1709 FILLER_0_16_41