*SPEF "ieee 1481-1999"
*DESIGN "tt_um_chiplet_jtag"
*DATE "11:11:11 Fri 11 11, 1111"
*VENDOR "OpenRCX"
*PROGRAM "Parallel Extraction"
*VERSION "1.0"
*DESIGN_FLOW "NAME_SCOPE LOCAL" "PIN_CAP NONE"
*DIVIDER /
*DELIMITER :
*BUS_DELIMITER []
*T_UNIT 1 NS
*C_UNIT 1 PF
*R_UNIT 1 OHM
*L_UNIT 1 HENRY

*NAME_MAP
*3 clk
*4 ena
*5 rst_n
*6 ui_in[0]
*7 ui_in[1]
*8 ui_in[2]
*9 ui_in[3]
*10 ui_in[4]
*11 ui_in[5]
*12 ui_in[6]
*13 ui_in[7]
*14 uio_in[0]
*15 uio_in[1]
*16 uio_in[2]
*17 uio_in[3]
*18 uio_in[4]
*19 uio_in[5]
*20 uio_in[6]
*21 uio_in[7]
*22 net35
*23 net36
*24 net37
*25 net38
*26 net44
*27 net45
*28 uio_oe[6]
*29 uio_oe[7]
*30 net39
*31 net40
*32 net41
*33 net42
*34 uio_out[4]
*35 uio_out[5]
*36 uio_out[6]
*37 uio_out[7]
*38 uo_out[0]
*39 uo_out[1]
*40 uo_out[2]
*41 uo_out[3]
*42 uo_out[4]
*43 uo_out[5]
*44 uo_out[6]
*45 uo_out[7]
*46 _000_
*47 _001_
*48 _002_
*49 _003_
*50 _004_
*51 _005_
*52 _006_
*53 _007_
*54 _008_
*55 _009_
*56 _010_
*57 _011_
*58 _012_
*59 _013_
*60 _014_
*61 _015_
*62 _016_
*63 _017_
*64 _018_
*65 _019_
*66 _020_
*67 _021_
*68 _022_
*69 _023_
*70 _024_
*71 _025_
*72 _026_
*73 _027_
*74 _028_
*75 _029_
*76 _030_
*77 _031_
*78 _032_
*79 _033_
*80 _034_
*81 _035_
*82 _036_
*83 _037_
*84 _038_
*85 _039_
*86 _040_
*87 _041_
*88 _042_
*89 _043_
*90 _044_
*91 _045_
*92 _046_
*93 _047_
*94 _048_
*95 _049_
*96 _050_
*97 _051_
*98 _052_
*99 _053_
*100 _054_
*101 _055_
*102 _056_
*103 _057_
*104 _058_
*105 _059_
*106 _060_
*107 _061_
*108 _062_
*109 _063_
*110 _064_
*111 _065_
*112 _066_
*113 _067_
*114 _068_
*115 _069_
*116 _070_
*117 _071_
*118 _072_
*119 _073_
*120 _074_
*121 _075_
*122 _076_
*123 _077_
*124 _078_
*125 _079_
*126 _080_
*127 _081_
*128 _082_
*129 _083_
*130 _084_
*131 _085_
*132 _086_
*133 _087_
*134 _088_
*135 _089_
*136 _090_
*137 _091_
*138 _092_
*139 _093_
*140 _094_
*141 _095_
*142 _096_
*143 _097_
*144 _098_
*145 _099_
*146 _100_
*147 _101_
*148 _102_
*149 _103_
*150 _104_
*151 _105_
*152 _106_
*153 _107_
*154 _108_
*155 _109_
*156 _110_
*157 _111_
*158 _112_
*159 _113_
*160 _114_
*161 _115_
*162 _116_
*163 _117_
*164 _118_
*165 _119_
*166 _120_
*167 _121_
*168 _122_
*169 _123_
*170 _124_
*171 _125_
*172 _126_
*173 _127_
*174 _128_
*175 _129_
*176 _130_
*177 _131_
*178 _132_
*179 _133_
*180 _134_
*181 _135_
*182 _136_
*183 _137_
*184 _138_
*185 _139_
*186 _140_
*187 _141_
*188 _142_
*189 _143_
*190 _144_
*191 _145_
*192 _146_
*193 _147_
*194 _148_
*195 _149_
*196 _150_
*197 _151_
*198 _152_
*199 _153_
*200 _154_
*201 _155_
*202 _156_
*203 _157_
*204 _158_
*205 _159_
*206 _160_
*207 _161_
*208 _162_
*209 _163_
*210 _164_
*211 _165_
*212 _166_
*213 _167_
*214 _168_
*215 _169_
*216 _170_
*217 _171_
*218 _172_
*219 _173_
*220 _174_
*221 _175_
*222 _176_
*223 _177_
*224 _178_
*225 jtag\.TAP_bypassChain\.io_chainOut_data
*226 jtag\.TAP_controllerInternal\.activeInstruction\[0\]
*227 jtag\.TAP_controllerInternal\.activeInstruction\[1\]
*228 jtag\.TAP_controllerInternal\.activeInstruction\[2\]
*229 jtag\.TAP_controllerInternal\.currState\[0\]
*230 jtag\.TAP_controllerInternal\.currState\[1\]
*231 jtag\.TAP_controllerInternal\.currState\[2\]
*232 jtag\.TAP_controllerInternal\.currState\[3\]
*233 jtag\.TAP_controllerInternal\.io_output_tapIsInTestLogicReset
*234 jtag\.TAP_controllerInternal\.io_tap_TDO_data
*235 jtag\.TAP_controllerInternal\.irChain\.captureBits\[0\]
*236 jtag\.TAP_controllerInternal\.irChain\.io_chainOut_data
*237 jtag\.TAP_controllerInternal\.irChain\.regs_1
*238 jtag\.TAP_controllerInternal\.irChain\.regs_2
*239 jtag\.TAP_idcodeChain\.io_chainOut_data
*240 jtag\.TAP_idcodeChain\.regs_1
*241 jtag\.TAP_idcodeChain\.regs_10
*242 jtag\.TAP_idcodeChain\.regs_11
*243 jtag\.TAP_idcodeChain\.regs_12
*244 jtag\.TAP_idcodeChain\.regs_13
*245 jtag\.TAP_idcodeChain\.regs_14
*246 jtag\.TAP_idcodeChain\.regs_15
*247 jtag\.TAP_idcodeChain\.regs_16
*248 jtag\.TAP_idcodeChain\.regs_17
*249 jtag\.TAP_idcodeChain\.regs_18
*250 jtag\.TAP_idcodeChain\.regs_19
*251 jtag\.TAP_idcodeChain\.regs_2
*252 jtag\.TAP_idcodeChain\.regs_20
*253 jtag\.TAP_idcodeChain\.regs_21
*254 jtag\.TAP_idcodeChain\.regs_22
*255 jtag\.TAP_idcodeChain\.regs_23
*256 jtag\.TAP_idcodeChain\.regs_24
*257 jtag\.TAP_idcodeChain\.regs_25
*258 jtag\.TAP_idcodeChain\.regs_26
*259 jtag\.TAP_idcodeChain\.regs_27
*260 jtag\.TAP_idcodeChain\.regs_28
*261 jtag\.TAP_idcodeChain\.regs_29
*262 jtag\.TAP_idcodeChain\.regs_3
*263 jtag\.TAP_idcodeChain\.regs_30
*264 jtag\.TAP_idcodeChain\.regs_31
*265 jtag\.TAP_idcodeChain\.regs_4
*266 jtag\.TAP_idcodeChain\.regs_5
*267 jtag\.TAP_idcodeChain\.regs_6
*268 jtag\.TAP_idcodeChain\.regs_7
*269 jtag\.TAP_idcodeChain\.regs_8
*270 jtag\.TAP_idcodeChain\.regs_9
*271 jtag\.TDRChain\.captureBits\[0\]
*272 jtag\.TDRChain\.captureBits\[1\]
*273 jtag\.TDRChain\.captureBits\[2\]
*274 jtag\.TDRChain\.captureBits\[3\]
*275 jtag\.TDRChain\.captureBits\[4\]
*276 jtag\.TDRChain\.captureBits\[5\]
*277 jtag\.TDRChain\.captureBits\[6\]
*278 jtag\.TDRChain\.captureBits\[7\]
*279 jtag\.TDRChain\.io_chainOut_data
*280 jtag\.TDRChain\.regs_1
*281 jtag\.TDRChain\.regs_2
*282 jtag\.TDRChain\.regs_3
*283 jtag\.TDRChain\.regs_4
*284 jtag\.TDRChain\.regs_5
*285 jtag\.TDRChain\.regs_6
*286 jtag\.TDRChain\.regs_7
*287 jtag\.TDRChain_1\.captureBits\[0\]
*288 jtag\.TDRChain_1\.captureBits\[1\]
*289 jtag\.TDRChain_1\.io_chainOut_data
*290 jtag\.TDRChain_1\.regs_1
*291 jtag\.TDRChain_2\.io_chainOut_data
*292 jtag\.TDRChain_2\.regs_1
*293 jtag\.TDRChain_3\.captureBits\[0\]
*294 jtag\.TDRChain_3\.captureBits\[1\]
*295 jtag\.TDRChain_3\.io_chainOut_data
*296 jtag\.TDRChain_3\.regs_1
*297 net1
*298 net10
*299 net11
*300 net12
*301 net13
*302 net14
*303 net15
*304 net16
*305 net17
*306 net18
*307 net19
*308 net2
*309 net20
*310 net21
*311 net22
*312 net23
*313 net24
*314 net25
*315 net26
*316 net27
*317 net28
*318 net29
*319 net3
*320 net30
*321 net31
*322 net32
*323 net33
*324 net34
*325 net4
*326 net43
*327 net5
*328 net6
*329 net7
*330 net8
*331 net9
*332 FILLER_0_0_109
*333 FILLER_0_0_113
*334 FILLER_0_0_125
*335 FILLER_0_0_137
*336 FILLER_0_0_141
*337 FILLER_0_0_15
*338 FILLER_0_0_153
*339 FILLER_0_0_165
*340 FILLER_0_0_169
*341 FILLER_0_0_181
*342 FILLER_0_0_193
*343 FILLER_0_0_197
*344 FILLER_0_0_209
*345 FILLER_0_0_221
*346 FILLER_0_0_225
*347 FILLER_0_0_237
*348 FILLER_0_0_249
*349 FILLER_0_0_253
*350 FILLER_0_0_265
*351 FILLER_0_0_27
*352 FILLER_0_0_277
*353 FILLER_0_0_281
*354 FILLER_0_0_29
*355 FILLER_0_0_293
*356 FILLER_0_0_3
*357 FILLER_0_0_305
*358 FILLER_0_0_309
*359 FILLER_0_0_321
*360 FILLER_0_0_333
*361 FILLER_0_0_337
*362 FILLER_0_0_349
*363 FILLER_0_0_41
*364 FILLER_0_0_53
*365 FILLER_0_0_57
*366 FILLER_0_0_69
*367 FILLER_0_0_81
*368 FILLER_0_0_85
*369 FILLER_0_0_97
*370 FILLER_0_10_109
*371 FILLER_0_10_121
*372 FILLER_0_10_133
*373 FILLER_0_10_139
*374 FILLER_0_10_141
*375 FILLER_0_10_15
*376 FILLER_0_10_153
*377 FILLER_0_10_165
*378 FILLER_0_10_177
*379 FILLER_0_10_189
*380 FILLER_0_10_195
*381 FILLER_0_10_197
*382 FILLER_0_10_209
*383 FILLER_0_10_221
*384 FILLER_0_10_233
*385 FILLER_0_10_245
*386 FILLER_0_10_251
*387 FILLER_0_10_253
*388 FILLER_0_10_265
*389 FILLER_0_10_27
*390 FILLER_0_10_277
*391 FILLER_0_10_289
*392 FILLER_0_10_29
*393 FILLER_0_10_3
*394 FILLER_0_10_301
*395 FILLER_0_10_307
*396 FILLER_0_10_309
*397 FILLER_0_10_321
*398 FILLER_0_10_333
*399 FILLER_0_10_345
*400 FILLER_0_10_41
*401 FILLER_0_10_53
*402 FILLER_0_10_65
*403 FILLER_0_10_77
*404 FILLER_0_10_83
*405 FILLER_0_10_85
*406 FILLER_0_10_97
*407 FILLER_0_11_105
*408 FILLER_0_11_111
*409 FILLER_0_11_113
*410 FILLER_0_11_125
*411 FILLER_0_11_137
*412 FILLER_0_11_149
*413 FILLER_0_11_15
*414 FILLER_0_11_161
*415 FILLER_0_11_167
*416 FILLER_0_11_169
*417 FILLER_0_11_181
*418 FILLER_0_11_193
*419 FILLER_0_11_205
*420 FILLER_0_11_217
*421 FILLER_0_11_223
*422 FILLER_0_11_225
*423 FILLER_0_11_237
*424 FILLER_0_11_249
*425 FILLER_0_11_261
*426 FILLER_0_11_27
*427 FILLER_0_11_273
*428 FILLER_0_11_279
*429 FILLER_0_11_281
*430 FILLER_0_11_293
*431 FILLER_0_11_3
*432 FILLER_0_11_305
*433 FILLER_0_11_317
*434 FILLER_0_11_329
*435 FILLER_0_11_335
*436 FILLER_0_11_337
*437 FILLER_0_11_349
*438 FILLER_0_11_39
*439 FILLER_0_11_51
*440 FILLER_0_11_55
*441 FILLER_0_11_57
*442 FILLER_0_11_69
*443 FILLER_0_11_81
*444 FILLER_0_11_93
*445 FILLER_0_12_109
*446 FILLER_0_12_121
*447 FILLER_0_12_133
*448 FILLER_0_12_139
*449 FILLER_0_12_141
*450 FILLER_0_12_15
*451 FILLER_0_12_153
*452 FILLER_0_12_165
*453 FILLER_0_12_177
*454 FILLER_0_12_189
*455 FILLER_0_12_195
*456 FILLER_0_12_197
*457 FILLER_0_12_209
*458 FILLER_0_12_221
*459 FILLER_0_12_233
*460 FILLER_0_12_245
*461 FILLER_0_12_251
*462 FILLER_0_12_253
*463 FILLER_0_12_265
*464 FILLER_0_12_27
*465 FILLER_0_12_277
*466 FILLER_0_12_289
*467 FILLER_0_12_29
*468 FILLER_0_12_3
*469 FILLER_0_12_301
*470 FILLER_0_12_307
*471 FILLER_0_12_309
*472 FILLER_0_12_321
*473 FILLER_0_12_333
*474 FILLER_0_12_345
*475 FILLER_0_12_41
*476 FILLER_0_12_53
*477 FILLER_0_12_65
*478 FILLER_0_12_77
*479 FILLER_0_12_83
*480 FILLER_0_12_85
*481 FILLER_0_12_97
*482 FILLER_0_13_105
*483 FILLER_0_13_111
*484 FILLER_0_13_113
*485 FILLER_0_13_125
*486 FILLER_0_13_137
*487 FILLER_0_13_149
*488 FILLER_0_13_15
*489 FILLER_0_13_161
*490 FILLER_0_13_167
*491 FILLER_0_13_169
*492 FILLER_0_13_181
*493 FILLER_0_13_193
*494 FILLER_0_13_205
*495 FILLER_0_13_217
*496 FILLER_0_13_223
*497 FILLER_0_13_225
*498 FILLER_0_13_237
*499 FILLER_0_13_249
*500 FILLER_0_13_261
*501 FILLER_0_13_27
*502 FILLER_0_13_273
*503 FILLER_0_13_279
*504 FILLER_0_13_281
*505 FILLER_0_13_293
*506 FILLER_0_13_3
*507 FILLER_0_13_305
*508 FILLER_0_13_317
*509 FILLER_0_13_329
*510 FILLER_0_13_335
*511 FILLER_0_13_337
*512 FILLER_0_13_349
*513 FILLER_0_13_39
*514 FILLER_0_13_51
*515 FILLER_0_13_55
*516 FILLER_0_13_57
*517 FILLER_0_13_69
*518 FILLER_0_13_81
*519 FILLER_0_13_93
*520 FILLER_0_14_109
*521 FILLER_0_14_121
*522 FILLER_0_14_133
*523 FILLER_0_14_139
*524 FILLER_0_14_141
*525 FILLER_0_14_15
*526 FILLER_0_14_153
*527 FILLER_0_14_165
*528 FILLER_0_14_177
*529 FILLER_0_14_189
*530 FILLER_0_14_195
*531 FILLER_0_14_197
*532 FILLER_0_14_209
*533 FILLER_0_14_221
*534 FILLER_0_14_233
*535 FILLER_0_14_245
*536 FILLER_0_14_251
*537 FILLER_0_14_253
*538 FILLER_0_14_265
*539 FILLER_0_14_27
*540 FILLER_0_14_277
*541 FILLER_0_14_289
*542 FILLER_0_14_29
*543 FILLER_0_14_3
*544 FILLER_0_14_301
*545 FILLER_0_14_307
*546 FILLER_0_14_309
*547 FILLER_0_14_321
*548 FILLER_0_14_333
*549 FILLER_0_14_345
*550 FILLER_0_14_41
*551 FILLER_0_14_53
*552 FILLER_0_14_65
*553 FILLER_0_14_77
*554 FILLER_0_14_83
*555 FILLER_0_14_85
*556 FILLER_0_14_97
*557 FILLER_0_15_105
*558 FILLER_0_15_111
*559 FILLER_0_15_113
*560 FILLER_0_15_125
*561 FILLER_0_15_137
*562 FILLER_0_15_149
*563 FILLER_0_15_15
*564 FILLER_0_15_161
*565 FILLER_0_15_167
*566 FILLER_0_15_169
*567 FILLER_0_15_181
*568 FILLER_0_15_193
*569 FILLER_0_15_205
*570 FILLER_0_15_217
*571 FILLER_0_15_223
*572 FILLER_0_15_225
*573 FILLER_0_15_237
*574 FILLER_0_15_249
*575 FILLER_0_15_261
*576 FILLER_0_15_27
*577 FILLER_0_15_273
*578 FILLER_0_15_279
*579 FILLER_0_15_281
*580 FILLER_0_15_293
*581 FILLER_0_15_3
*582 FILLER_0_15_305
*583 FILLER_0_15_317
*584 FILLER_0_15_329
*585 FILLER_0_15_335
*586 FILLER_0_15_337
*587 FILLER_0_15_349
*588 FILLER_0_15_39
*589 FILLER_0_15_51
*590 FILLER_0_15_55
*591 FILLER_0_15_57
*592 FILLER_0_15_69
*593 FILLER_0_15_81
*594 FILLER_0_15_93
*595 FILLER_0_16_109
*596 FILLER_0_16_121
*597 FILLER_0_16_133
*598 FILLER_0_16_139
*599 FILLER_0_16_141
*600 FILLER_0_16_15
*601 FILLER_0_16_153
*602 FILLER_0_16_165
*603 FILLER_0_16_177
*604 FILLER_0_16_189
*605 FILLER_0_16_195
*606 FILLER_0_16_197
*607 FILLER_0_16_209
*608 FILLER_0_16_221
*609 FILLER_0_16_233
*610 FILLER_0_16_245
*611 FILLER_0_16_251
*612 FILLER_0_16_253
*613 FILLER_0_16_265
*614 FILLER_0_16_27
*615 FILLER_0_16_277
*616 FILLER_0_16_289
*617 FILLER_0_16_29
*618 FILLER_0_16_3
*619 FILLER_0_16_301
*620 FILLER_0_16_307
*621 FILLER_0_16_309
*622 FILLER_0_16_321
*623 FILLER_0_16_333
*624 FILLER_0_16_345
*625 FILLER_0_16_41
*626 FILLER_0_16_53
*627 FILLER_0_16_65
*628 FILLER_0_16_77
*629 FILLER_0_16_83
*630 FILLER_0_16_85
*631 FILLER_0_16_97
*632 FILLER_0_17_105
*633 FILLER_0_17_111
*634 FILLER_0_17_113
*635 FILLER_0_17_125
*636 FILLER_0_17_137
*637 FILLER_0_17_149
*638 FILLER_0_17_15
*639 FILLER_0_17_161
*640 FILLER_0_17_167
*641 FILLER_0_17_169
*642 FILLER_0_17_181
*643 FILLER_0_17_193
*644 FILLER_0_17_205
*645 FILLER_0_17_217
*646 FILLER_0_17_223
*647 FILLER_0_17_225
*648 FILLER_0_17_237
*649 FILLER_0_17_249
*650 FILLER_0_17_261
*651 FILLER_0_17_27
*652 FILLER_0_17_273
*653 FILLER_0_17_279
*654 FILLER_0_17_281
*655 FILLER_0_17_293
*656 FILLER_0_17_3
*657 FILLER_0_17_305
*658 FILLER_0_17_317
*659 FILLER_0_17_329
*660 FILLER_0_17_335
*661 FILLER_0_17_337
*662 FILLER_0_17_349
*663 FILLER_0_17_39
*664 FILLER_0_17_51
*665 FILLER_0_17_55
*666 FILLER_0_17_57
*667 FILLER_0_17_69
*668 FILLER_0_17_81
*669 FILLER_0_17_93
*670 FILLER_0_18_109
*671 FILLER_0_18_121
*672 FILLER_0_18_133
*673 FILLER_0_18_139
*674 FILLER_0_18_141
*675 FILLER_0_18_15
*676 FILLER_0_18_153
*677 FILLER_0_18_165
*678 FILLER_0_18_177
*679 FILLER_0_18_189
*680 FILLER_0_18_195
*681 FILLER_0_18_197
*682 FILLER_0_18_209
*683 FILLER_0_18_221
*684 FILLER_0_18_233
*685 FILLER_0_18_245
*686 FILLER_0_18_251
*687 FILLER_0_18_253
*688 FILLER_0_18_265
*689 FILLER_0_18_27
*690 FILLER_0_18_277
*691 FILLER_0_18_289
*692 FILLER_0_18_29
*693 FILLER_0_18_3
*694 FILLER_0_18_301
*695 FILLER_0_18_307
*696 FILLER_0_18_309
*697 FILLER_0_18_321
*698 FILLER_0_18_333
*699 FILLER_0_18_345
*700 FILLER_0_18_41
*701 FILLER_0_18_53
*702 FILLER_0_18_65
*703 FILLER_0_18_77
*704 FILLER_0_18_83
*705 FILLER_0_18_85
*706 FILLER_0_18_97
*707 FILLER_0_19_105
*708 FILLER_0_19_111
*709 FILLER_0_19_113
*710 FILLER_0_19_125
*711 FILLER_0_19_137
*712 FILLER_0_19_149
*713 FILLER_0_19_15
*714 FILLER_0_19_161
*715 FILLER_0_19_167
*716 FILLER_0_19_169
*717 FILLER_0_19_181
*718 FILLER_0_19_193
*719 FILLER_0_19_205
*720 FILLER_0_19_217
*721 FILLER_0_19_223
*722 FILLER_0_19_225
*723 FILLER_0_19_237
*724 FILLER_0_19_249
*725 FILLER_0_19_261
*726 FILLER_0_19_27
*727 FILLER_0_19_273
*728 FILLER_0_19_279
*729 FILLER_0_19_281
*730 FILLER_0_19_293
*731 FILLER_0_19_3
*732 FILLER_0_19_305
*733 FILLER_0_19_317
*734 FILLER_0_19_329
*735 FILLER_0_19_335
*736 FILLER_0_19_337
*737 FILLER_0_19_349
*738 FILLER_0_19_39
*739 FILLER_0_19_51
*740 FILLER_0_19_55
*741 FILLER_0_19_57
*742 FILLER_0_19_69
*743 FILLER_0_19_81
*744 FILLER_0_19_93
*745 FILLER_0_1_105
*746 FILLER_0_1_111
*747 FILLER_0_1_113
*748 FILLER_0_1_125
*749 FILLER_0_1_137
*750 FILLER_0_1_149
*751 FILLER_0_1_15
*752 FILLER_0_1_161
*753 FILLER_0_1_167
*754 FILLER_0_1_169
*755 FILLER_0_1_181
*756 FILLER_0_1_193
*757 FILLER_0_1_205
*758 FILLER_0_1_217
*759 FILLER_0_1_223
*760 FILLER_0_1_225
*761 FILLER_0_1_237
*762 FILLER_0_1_249
*763 FILLER_0_1_261
*764 FILLER_0_1_27
*765 FILLER_0_1_273
*766 FILLER_0_1_279
*767 FILLER_0_1_281
*768 FILLER_0_1_293
*769 FILLER_0_1_3
*770 FILLER_0_1_305
*771 FILLER_0_1_317
*772 FILLER_0_1_329
*773 FILLER_0_1_335
*774 FILLER_0_1_337
*775 FILLER_0_1_349
*776 FILLER_0_1_39
*777 FILLER_0_1_51
*778 FILLER_0_1_55
*779 FILLER_0_1_57
*780 FILLER_0_1_69
*781 FILLER_0_1_81
*782 FILLER_0_1_93
*783 FILLER_0_20_109
*784 FILLER_0_20_121
*785 FILLER_0_20_133
*786 FILLER_0_20_139
*787 FILLER_0_20_141
*788 FILLER_0_20_15
*789 FILLER_0_20_153
*790 FILLER_0_20_165
*791 FILLER_0_20_177
*792 FILLER_0_20_189
*793 FILLER_0_20_195
*794 FILLER_0_20_197
*795 FILLER_0_20_209
*796 FILLER_0_20_221
*797 FILLER_0_20_233
*798 FILLER_0_20_245
*799 FILLER_0_20_251
*800 FILLER_0_20_253
*801 FILLER_0_20_265
*802 FILLER_0_20_27
*803 FILLER_0_20_277
*804 FILLER_0_20_289
*805 FILLER_0_20_29
*806 FILLER_0_20_3
*807 FILLER_0_20_301
*808 FILLER_0_20_307
*809 FILLER_0_20_309
*810 FILLER_0_20_321
*811 FILLER_0_20_333
*812 FILLER_0_20_345
*813 FILLER_0_20_41
*814 FILLER_0_20_53
*815 FILLER_0_20_65
*816 FILLER_0_20_77
*817 FILLER_0_20_83
*818 FILLER_0_20_85
*819 FILLER_0_20_97
*820 FILLER_0_21_105
*821 FILLER_0_21_111
*822 FILLER_0_21_113
*823 FILLER_0_21_125
*824 FILLER_0_21_137
*825 FILLER_0_21_149
*826 FILLER_0_21_15
*827 FILLER_0_21_161
*828 FILLER_0_21_167
*829 FILLER_0_21_169
*830 FILLER_0_21_181
*831 FILLER_0_21_193
*832 FILLER_0_21_205
*833 FILLER_0_21_217
*834 FILLER_0_21_223
*835 FILLER_0_21_225
*836 FILLER_0_21_237
*837 FILLER_0_21_249
*838 FILLER_0_21_261
*839 FILLER_0_21_27
*840 FILLER_0_21_273
*841 FILLER_0_21_279
*842 FILLER_0_21_281
*843 FILLER_0_21_293
*844 FILLER_0_21_3
*845 FILLER_0_21_305
*846 FILLER_0_21_317
*847 FILLER_0_21_329
*848 FILLER_0_21_335
*849 FILLER_0_21_337
*850 FILLER_0_21_349
*851 FILLER_0_21_39
*852 FILLER_0_21_51
*853 FILLER_0_21_55
*854 FILLER_0_21_57
*855 FILLER_0_21_69
*856 FILLER_0_21_81
*857 FILLER_0_21_93
*858 FILLER_0_22_109
*859 FILLER_0_22_121
*860 FILLER_0_22_133
*861 FILLER_0_22_139
*862 FILLER_0_22_15
*863 FILLER_0_22_168
*864 FILLER_0_22_237
*865 FILLER_0_22_249
*866 FILLER_0_22_27
*867 FILLER_0_22_273
*868 FILLER_0_22_277
*869 FILLER_0_22_29
*870 FILLER_0_22_298
*871 FILLER_0_22_3
*872 FILLER_0_22_306
*873 FILLER_0_22_309
*874 FILLER_0_22_321
*875 FILLER_0_22_333
*876 FILLER_0_22_345
*877 FILLER_0_22_41
*878 FILLER_0_22_53
*879 FILLER_0_22_65
*880 FILLER_0_22_77
*881 FILLER_0_22_83
*882 FILLER_0_22_85
*883 FILLER_0_22_97
*884 FILLER_0_23_105
*885 FILLER_0_23_111
*886 FILLER_0_23_113
*887 FILLER_0_23_125
*888 FILLER_0_23_137
*889 FILLER_0_23_141
*890 FILLER_0_23_15
*891 FILLER_0_23_162
*892 FILLER_0_23_169
*893 FILLER_0_23_181
*894 FILLER_0_23_217
*895 FILLER_0_23_223
*896 FILLER_0_23_245
*897 FILLER_0_23_267
*898 FILLER_0_23_27
*899 FILLER_0_23_3
*900 FILLER_0_23_308
*901 FILLER_0_23_320
*902 FILLER_0_23_332
*903 FILLER_0_23_337
*904 FILLER_0_23_349
*905 FILLER_0_23_39
*906 FILLER_0_23_51
*907 FILLER_0_23_55
*908 FILLER_0_23_57
*909 FILLER_0_23_69
*910 FILLER_0_23_81
*911 FILLER_0_23_93
*912 FILLER_0_24_119
*913 FILLER_0_24_131
*914 FILLER_0_24_139
*915 FILLER_0_24_15
*916 FILLER_0_24_182
*917 FILLER_0_24_192
*918 FILLER_0_24_197
*919 FILLER_0_24_211
*920 FILLER_0_24_231
*921 FILLER_0_24_243
*922 FILLER_0_24_267
*923 FILLER_0_24_27
*924 FILLER_0_24_275
*925 FILLER_0_24_29
*926 FILLER_0_24_3
*927 FILLER_0_24_303
*928 FILLER_0_24_307
*929 FILLER_0_24_309
*930 FILLER_0_24_321
*931 FILLER_0_24_333
*932 FILLER_0_24_345
*933 FILLER_0_24_41
*934 FILLER_0_24_53
*935 FILLER_0_24_65
*936 FILLER_0_24_77
*937 FILLER_0_24_83
*938 FILLER_0_24_85
*939 FILLER_0_25_113
*940 FILLER_0_25_121
*941 FILLER_0_25_133
*942 FILLER_0_25_145
*943 FILLER_0_25_15
*944 FILLER_0_25_176
*945 FILLER_0_25_188
*946 FILLER_0_25_200
*947 FILLER_0_25_222
*948 FILLER_0_25_225
*949 FILLER_0_25_237
*950 FILLER_0_25_241
*951 FILLER_0_25_262
*952 FILLER_0_25_27
*953 FILLER_0_25_274
*954 FILLER_0_25_3
*955 FILLER_0_25_308
*956 FILLER_0_25_320
*957 FILLER_0_25_332
*958 FILLER_0_25_337
*959 FILLER_0_25_349
*960 FILLER_0_25_39
*961 FILLER_0_25_51
*962 FILLER_0_25_55
*963 FILLER_0_25_78
*964 FILLER_0_25_83
*965 FILLER_0_26_132
*966 FILLER_0_26_141
*967 FILLER_0_26_15
*968 FILLER_0_26_153
*969 FILLER_0_26_185
*970 FILLER_0_26_191
*971 FILLER_0_26_201
*972 FILLER_0_26_211
*973 FILLER_0_26_227
*974 FILLER_0_26_237
*975 FILLER_0_26_249
*976 FILLER_0_26_253
*977 FILLER_0_26_265
*978 FILLER_0_26_27
*979 FILLER_0_26_273
*980 FILLER_0_26_29
*981 FILLER_0_26_3
*982 FILLER_0_26_301
*983 FILLER_0_26_307
*984 FILLER_0_26_309
*985 FILLER_0_26_321
*986 FILLER_0_26_333
*987 FILLER_0_26_345
*988 FILLER_0_26_41
*989 FILLER_0_26_53
*990 FILLER_0_26_65
*991 FILLER_0_26_69
*992 FILLER_0_26_85
*993 FILLER_0_27_108
*994 FILLER_0_27_113
*995 FILLER_0_27_128
*996 FILLER_0_27_140
*997 FILLER_0_27_15
*998 FILLER_0_27_152
*999 FILLER_0_27_189
*1000 FILLER_0_27_201
*1001 FILLER_0_27_222
*1002 FILLER_0_27_229
*1003 FILLER_0_27_250
*1004 FILLER_0_27_262
*1005 FILLER_0_27_27
*1006 FILLER_0_27_274
*1007 FILLER_0_27_3
*1008 FILLER_0_27_301
*1009 FILLER_0_27_313
*1010 FILLER_0_27_325
*1011 FILLER_0_27_333
*1012 FILLER_0_27_337
*1013 FILLER_0_27_349
*1014 FILLER_0_27_39
*1015 FILLER_0_27_51
*1016 FILLER_0_27_55
*1017 FILLER_0_27_57
*1018 FILLER_0_27_82
*1019 FILLER_0_28_121
*1020 FILLER_0_28_129
*1021 FILLER_0_28_15
*1022 FILLER_0_28_190
*1023 FILLER_0_28_197
*1024 FILLER_0_28_209
*1025 FILLER_0_28_213
*1026 FILLER_0_28_27
*1027 FILLER_0_28_273
*1028 FILLER_0_28_29
*1029 FILLER_0_28_3
*1030 FILLER_0_28_301
*1031 FILLER_0_28_307
*1032 FILLER_0_28_309
*1033 FILLER_0_28_321
*1034 FILLER_0_28_33
*1035 FILLER_0_28_333
*1036 FILLER_0_28_345
*1037 FILLER_0_28_63
*1038 FILLER_0_28_74
*1039 FILLER_0_28_85
*1040 FILLER_0_28_91
*1041 FILLER_0_29_105
*1042 FILLER_0_29_111
*1043 FILLER_0_29_113
*1044 FILLER_0_29_121
*1045 FILLER_0_29_129
*1046 FILLER_0_29_141
*1047 FILLER_0_29_15
*1048 FILLER_0_29_153
*1049 FILLER_0_29_166
*1050 FILLER_0_29_169
*1051 FILLER_0_29_187
*1052 FILLER_0_29_199
*1053 FILLER_0_29_211
*1054 FILLER_0_29_219
*1055 FILLER_0_29_245
*1056 FILLER_0_29_268
*1057 FILLER_0_29_27
*1058 FILLER_0_29_279
*1059 FILLER_0_29_3
*1060 FILLER_0_29_301
*1061 FILLER_0_29_313
*1062 FILLER_0_29_325
*1063 FILLER_0_29_333
*1064 FILLER_0_29_337
*1065 FILLER_0_29_349
*1066 FILLER_0_29_55
*1067 FILLER_0_29_80
*1068 FILLER_0_29_93
*1069 FILLER_0_2_109
*1070 FILLER_0_2_121
*1071 FILLER_0_2_133
*1072 FILLER_0_2_139
*1073 FILLER_0_2_141
*1074 FILLER_0_2_15
*1075 FILLER_0_2_153
*1076 FILLER_0_2_165
*1077 FILLER_0_2_177
*1078 FILLER_0_2_189
*1079 FILLER_0_2_195
*1080 FILLER_0_2_197
*1081 FILLER_0_2_209
*1082 FILLER_0_2_221
*1083 FILLER_0_2_233
*1084 FILLER_0_2_245
*1085 FILLER_0_2_251
*1086 FILLER_0_2_253
*1087 FILLER_0_2_265
*1088 FILLER_0_2_27
*1089 FILLER_0_2_277
*1090 FILLER_0_2_289
*1091 FILLER_0_2_29
*1092 FILLER_0_2_3
*1093 FILLER_0_2_301
*1094 FILLER_0_2_307
*1095 FILLER_0_2_309
*1096 FILLER_0_2_321
*1097 FILLER_0_2_333
*1098 FILLER_0_2_345
*1099 FILLER_0_2_41
*1100 FILLER_0_2_53
*1101 FILLER_0_2_65
*1102 FILLER_0_2_77
*1103 FILLER_0_2_83
*1104 FILLER_0_2_85
*1105 FILLER_0_2_97
*1106 FILLER_0_30_122
*1107 FILLER_0_30_126
*1108 FILLER_0_30_149
*1109 FILLER_0_30_15
*1110 FILLER_0_30_161
*1111 FILLER_0_30_194
*1112 FILLER_0_30_203
*1113 FILLER_0_30_215
*1114 FILLER_0_30_221
*1115 FILLER_0_30_242
*1116 FILLER_0_30_250
*1117 FILLER_0_30_253
*1118 FILLER_0_30_257
*1119 FILLER_0_30_27
*1120 FILLER_0_30_29
*1121 FILLER_0_30_298
*1122 FILLER_0_30_3
*1123 FILLER_0_30_306
*1124 FILLER_0_30_309
*1125 FILLER_0_30_321
*1126 FILLER_0_30_333
*1127 FILLER_0_30_345
*1128 FILLER_0_30_41
*1129 FILLER_0_30_49
*1130 FILLER_0_30_61
*1131 FILLER_0_30_67
*1132 FILLER_0_30_75
*1133 FILLER_0_30_83
*1134 FILLER_0_30_85
*1135 FILLER_0_30_89
*1136 FILLER_0_30_97
*1137 FILLER_0_31_110
*1138 FILLER_0_31_113
*1139 FILLER_0_31_121
*1140 FILLER_0_31_15
*1141 FILLER_0_31_162
*1142 FILLER_0_31_169
*1143 FILLER_0_31_214
*1144 FILLER_0_31_222
*1145 FILLER_0_31_225
*1146 FILLER_0_31_242
*1147 FILLER_0_31_254
*1148 FILLER_0_31_266
*1149 FILLER_0_31_27
*1150 FILLER_0_31_278
*1151 FILLER_0_31_295
*1152 FILLER_0_31_3
*1153 FILLER_0_31_319
*1154 FILLER_0_31_331
*1155 FILLER_0_31_335
*1156 FILLER_0_31_337
*1157 FILLER_0_31_349
*1158 FILLER_0_31_39
*1159 FILLER_0_31_51
*1160 FILLER_0_31_55
*1161 FILLER_0_31_57
*1162 FILLER_0_31_69
*1163 FILLER_0_32_111
*1164 FILLER_0_32_117
*1165 FILLER_0_32_139
*1166 FILLER_0_32_144
*1167 FILLER_0_32_15
*1168 FILLER_0_32_152
*1169 FILLER_0_32_178
*1170 FILLER_0_32_190
*1171 FILLER_0_32_237
*1172 FILLER_0_32_249
*1173 FILLER_0_32_27
*1174 FILLER_0_32_273
*1175 FILLER_0_32_285
*1176 FILLER_0_32_29
*1177 FILLER_0_32_297
*1178 FILLER_0_32_3
*1179 FILLER_0_32_305
*1180 FILLER_0_32_309
*1181 FILLER_0_32_321
*1182 FILLER_0_32_333
*1183 FILLER_0_32_345
*1184 FILLER_0_32_60
*1185 FILLER_0_32_72
*1186 FILLER_0_33_108
*1187 FILLER_0_33_113
*1188 FILLER_0_33_125
*1189 FILLER_0_33_137
*1190 FILLER_0_33_154
*1191 FILLER_0_33_166
*1192 FILLER_0_33_169
*1193 FILLER_0_33_181
*1194 FILLER_0_33_193
*1195 FILLER_0_33_210
*1196 FILLER_0_33_222
*1197 FILLER_0_33_231
*1198 FILLER_0_33_243
*1199 FILLER_0_33_255
*1200 FILLER_0_33_267
*1201 FILLER_0_33_271
*1202 FILLER_0_33_279
*1203 FILLER_0_33_281
*1204 FILLER_0_33_3
*1205 FILLER_0_33_328
*1206 FILLER_0_33_337
*1207 FILLER_0_33_349
*1208 FILLER_0_33_54
*1209 FILLER_0_33_60
*1210 FILLER_0_33_72
*1211 FILLER_0_33_84
*1212 FILLER_0_34_11
*1213 FILLER_0_34_118
*1214 FILLER_0_34_130
*1215 FILLER_0_34_138
*1216 FILLER_0_34_141
*1217 FILLER_0_34_148
*1218 FILLER_0_34_159
*1219 FILLER_0_34_17
*1220 FILLER_0_34_171
*1221 FILLER_0_34_175
*1222 FILLER_0_34_179
*1223 FILLER_0_34_189
*1224 FILLER_0_34_195
*1225 FILLER_0_34_197
*1226 FILLER_0_34_21
*1227 FILLER_0_34_246
*1228 FILLER_0_34_251
*1229 FILLER_0_34_296
*1230 FILLER_0_34_3
*1231 FILLER_0_34_309
*1232 FILLER_0_34_335
*1233 FILLER_0_34_347
*1234 FILLER_0_34_67
*1235 FILLER_0_34_75
*1236 FILLER_0_34_85
*1237 FILLER_0_34_93
*1238 FILLER_0_35_100
*1239 FILLER_0_35_104
*1240 FILLER_0_35_108
*1241 FILLER_0_35_122
*1242 FILLER_0_35_134
*1243 FILLER_0_35_15
*1244 FILLER_0_35_162
*1245 FILLER_0_35_169
*1246 FILLER_0_35_202
*1247 FILLER_0_35_210
*1248 FILLER_0_35_23
*1249 FILLER_0_35_245
*1250 FILLER_0_35_265
*1251 FILLER_0_35_276
*1252 FILLER_0_35_299
*1253 FILLER_0_35_3
*1254 FILLER_0_35_346
*1255 FILLER_0_35_350
*1256 FILLER_0_35_44
*1257 FILLER_0_35_57
*1258 FILLER_0_35_66
*1259 FILLER_0_35_70
*1260 FILLER_0_36_100
*1261 FILLER_0_36_122
*1262 FILLER_0_36_141
*1263 FILLER_0_36_15
*1264 FILLER_0_36_169
*1265 FILLER_0_36_194
*1266 FILLER_0_36_20
*1267 FILLER_0_36_206
*1268 FILLER_0_36_242
*1269 FILLER_0_36_250
*1270 FILLER_0_36_26
*1271 FILLER_0_36_29
*1272 FILLER_0_36_3
*1273 FILLER_0_36_302
*1274 FILLER_0_36_309
*1275 FILLER_0_36_345
*1276 FILLER_0_36_51
*1277 FILLER_0_36_55
*1278 FILLER_0_36_82
*1279 FILLER_0_37_109
*1280 FILLER_0_37_122
*1281 FILLER_0_37_15
*1282 FILLER_0_37_169
*1283 FILLER_0_37_204
*1284 FILLER_0_37_208
*1285 FILLER_0_37_218
*1286 FILLER_0_37_274
*1287 FILLER_0_37_3
*1288 FILLER_0_37_333
*1289 FILLER_0_37_337
*1290 FILLER_0_37_349
*1291 FILLER_0_37_39
*1292 FILLER_0_37_51
*1293 FILLER_0_37_55
*1294 FILLER_0_37_57
*1295 FILLER_0_37_63
*1296 FILLER_0_37_87
*1297 FILLER_0_37_94
*1298 FILLER_0_38_105
*1299 FILLER_0_38_110
*1300 FILLER_0_38_113
*1301 FILLER_0_38_118
*1302 FILLER_0_38_122
*1303 FILLER_0_38_126
*1304 FILLER_0_38_130
*1305 FILLER_0_38_134
*1306 FILLER_0_38_141
*1307 FILLER_0_38_146
*1308 FILLER_0_38_15
*1309 FILLER_0_38_158
*1310 FILLER_0_38_166
*1311 FILLER_0_38_169
*1312 FILLER_0_38_181
*1313 FILLER_0_38_187
*1314 FILLER_0_38_191
*1315 FILLER_0_38_195
*1316 FILLER_0_38_197
*1317 FILLER_0_38_206
*1318 FILLER_0_38_214
*1319 FILLER_0_38_222
*1320 FILLER_0_38_225
*1321 FILLER_0_38_231
*1322 FILLER_0_38_239
*1323 FILLER_0_38_253
*1324 FILLER_0_38_27
*1325 FILLER_0_38_279
*1326 FILLER_0_38_3
*1327 FILLER_0_38_312
*1328 FILLER_0_38_32
*1329 FILLER_0_38_340
*1330 FILLER_0_38_348
*1331 FILLER_0_38_38
*1332 FILLER_0_38_42
*1333 FILLER_0_38_46
*1334 FILLER_0_38_50
*1335 FILLER_0_38_54
*1336 FILLER_0_38_57
*1337 FILLER_0_38_62
*1338 FILLER_0_38_71
*1339 FILLER_0_38_78
*1340 FILLER_0_38_85
*1341 FILLER_0_38_97
*1342 FILLER_0_3_105
*1343 FILLER_0_3_111
*1344 FILLER_0_3_113
*1345 FILLER_0_3_125
*1346 FILLER_0_3_137
*1347 FILLER_0_3_149
*1348 FILLER_0_3_15
*1349 FILLER_0_3_161
*1350 FILLER_0_3_167
*1351 FILLER_0_3_169
*1352 FILLER_0_3_181
*1353 FILLER_0_3_193
*1354 FILLER_0_3_205
*1355 FILLER_0_3_217
*1356 FILLER_0_3_223
*1357 FILLER_0_3_225
*1358 FILLER_0_3_237
*1359 FILLER_0_3_249
*1360 FILLER_0_3_261
*1361 FILLER_0_3_27
*1362 FILLER_0_3_273
*1363 FILLER_0_3_279
*1364 FILLER_0_3_281
*1365 FILLER_0_3_293
*1366 FILLER_0_3_3
*1367 FILLER_0_3_305
*1368 FILLER_0_3_317
*1369 FILLER_0_3_329
*1370 FILLER_0_3_335
*1371 FILLER_0_3_337
*1372 FILLER_0_3_349
*1373 FILLER_0_3_39
*1374 FILLER_0_3_51
*1375 FILLER_0_3_55
*1376 FILLER_0_3_57
*1377 FILLER_0_3_69
*1378 FILLER_0_3_81
*1379 FILLER_0_3_93
*1380 FILLER_0_4_109
*1381 FILLER_0_4_121
*1382 FILLER_0_4_133
*1383 FILLER_0_4_139
*1384 FILLER_0_4_141
*1385 FILLER_0_4_15
*1386 FILLER_0_4_153
*1387 FILLER_0_4_165
*1388 FILLER_0_4_177
*1389 FILLER_0_4_189
*1390 FILLER_0_4_195
*1391 FILLER_0_4_197
*1392 FILLER_0_4_209
*1393 FILLER_0_4_221
*1394 FILLER_0_4_233
*1395 FILLER_0_4_245
*1396 FILLER_0_4_251
*1397 FILLER_0_4_253
*1398 FILLER_0_4_265
*1399 FILLER_0_4_27
*1400 FILLER_0_4_277
*1401 FILLER_0_4_289
*1402 FILLER_0_4_29
*1403 FILLER_0_4_3
*1404 FILLER_0_4_301
*1405 FILLER_0_4_307
*1406 FILLER_0_4_309
*1407 FILLER_0_4_321
*1408 FILLER_0_4_333
*1409 FILLER_0_4_345
*1410 FILLER_0_4_41
*1411 FILLER_0_4_53
*1412 FILLER_0_4_65
*1413 FILLER_0_4_77
*1414 FILLER_0_4_83
*1415 FILLER_0_4_85
*1416 FILLER_0_4_97
*1417 FILLER_0_5_105
*1418 FILLER_0_5_111
*1419 FILLER_0_5_113
*1420 FILLER_0_5_125
*1421 FILLER_0_5_137
*1422 FILLER_0_5_149
*1423 FILLER_0_5_15
*1424 FILLER_0_5_161
*1425 FILLER_0_5_167
*1426 FILLER_0_5_169
*1427 FILLER_0_5_181
*1428 FILLER_0_5_193
*1429 FILLER_0_5_205
*1430 FILLER_0_5_217
*1431 FILLER_0_5_223
*1432 FILLER_0_5_225
*1433 FILLER_0_5_237
*1434 FILLER_0_5_249
*1435 FILLER_0_5_261
*1436 FILLER_0_5_27
*1437 FILLER_0_5_273
*1438 FILLER_0_5_279
*1439 FILLER_0_5_281
*1440 FILLER_0_5_293
*1441 FILLER_0_5_3
*1442 FILLER_0_5_305
*1443 FILLER_0_5_317
*1444 FILLER_0_5_329
*1445 FILLER_0_5_335
*1446 FILLER_0_5_337
*1447 FILLER_0_5_349
*1448 FILLER_0_5_39
*1449 FILLER_0_5_51
*1450 FILLER_0_5_55
*1451 FILLER_0_5_57
*1452 FILLER_0_5_69
*1453 FILLER_0_5_81
*1454 FILLER_0_5_93
*1455 FILLER_0_6_109
*1456 FILLER_0_6_121
*1457 FILLER_0_6_133
*1458 FILLER_0_6_139
*1459 FILLER_0_6_141
*1460 FILLER_0_6_15
*1461 FILLER_0_6_153
*1462 FILLER_0_6_165
*1463 FILLER_0_6_177
*1464 FILLER_0_6_189
*1465 FILLER_0_6_195
*1466 FILLER_0_6_197
*1467 FILLER_0_6_209
*1468 FILLER_0_6_221
*1469 FILLER_0_6_233
*1470 FILLER_0_6_245
*1471 FILLER_0_6_251
*1472 FILLER_0_6_253
*1473 FILLER_0_6_265
*1474 FILLER_0_6_27
*1475 FILLER_0_6_277
*1476 FILLER_0_6_289
*1477 FILLER_0_6_29
*1478 FILLER_0_6_3
*1479 FILLER_0_6_301
*1480 FILLER_0_6_307
*1481 FILLER_0_6_309
*1482 FILLER_0_6_321
*1483 FILLER_0_6_333