*SPEF "ieee 1481-1999"
*DESIGN "tt_um_fing_synchronizer_hga"
*DATE "11:11:11 Fri 11 11, 1111"
*VENDOR "OpenRCX"
*PROGRAM "Parallel Extraction"
*VERSION "1.0"
*DESIGN_FLOW "NAME_SCOPE LOCAL" "PIN_CAP NONE"
*DIVIDER /
*DELIMITER :
*BUS_DELIMITER []
*T_UNIT 1 NS
*C_UNIT 1 PF
*R_UNIT 1 OHM
*L_UNIT 1 HENRY

*NAME_MAP
*3 clk
*4 ena
*5 rst_n
*6 ui_in[0]
*7 ui_in[1]
*8 ui_in[2]
*9 ui_in[3]
*10 ui_in[4]
*11 ui_in[5]
*12 ui_in[6]
*13 ui_in[7]
*14 uio_in[0]
*15 uio_in[1]
*16 uio_in[2]
*17 uio_in[3]
*18 uio_in[4]
*19 uio_in[5]
*20 uio_in[6]
*21 uio_in[7]
*22 net32
*23 net33
*24 net34
*25 net35
*26 net36
*27 net37
*28 net38
*29 net39
*30 net40
*31 net41
*32 net42
*33 net43
*34 net44
*35 net45
*36 net46
*37 net47
*38 uo_out[0]
*39 uo_out[1]
*40 uo_out[2]
*41 uo_out[3]
*42 uo_out[4]
*43 uo_out[5]
*44 uo_out[6]
*45 uo_out[7]
*46 _000_
*47 _001_
*48 _002_
*49 _003_
*50 _004_
*51 _005_
*52 _006_
*53 _007_
*54 _008_
*55 _009_
*56 _010_
*57 _011_
*58 _012_
*59 _013_
*60 _014_
*61 _015_
*62 _016_
*63 _017_
*64 _018_
*65 _019_
*66 _020_
*67 _021_
*68 _022_
*69 _023_
*70 _024_
*71 _025_
*72 _026_
*73 _027_
*74 _028_
*75 _029_
*76 _030_
*77 _031_
*78 _032_
*79 _033_
*80 _034_
*81 _035_
*82 _036_
*83 _037_
*84 _038_
*85 _039_
*86 _040_
*87 _041_
*88 _042_
*89 _043_
*90 _044_
*91 _045_
*92 _046_
*93 _047_
*94 _048_
*95 _049_
*96 _050_
*97 _051_
*98 _052_
*99 _053_
*100 _054_
*101 _055_
*102 _056_
*103 _057_
*104 _058_
*105 _059_
*106 _060_
*107 _061_
*108 _062_
*109 _063_
*110 _064_
*111 _065_
*112 _066_
*113 _067_
*114 _068_
*115 _069_
*116 _070_
*117 _071_
*118 _072_
*119 _073_
*120 _074_
*121 _075_
*122 _076_
*123 _077_
*124 _078_
*125 _079_
*126 _080_
*127 _081_
*128 _082_
*129 _083_
*130 _084_
*131 _085_
*132 _086_
*133 _087_
*134 _088_
*135 _089_
*136 _090_
*137 _091_
*138 _092_
*139 _093_
*140 _094_
*141 _095_
*142 _096_
*143 _097_
*144 _098_
*145 _099_
*146 _100_
*147 _101_
*148 _102_
*149 _103_
*150 _104_
*151 _105_
*152 _106_
*153 _107_
*154 _108_
*155 _109_
*156 _110_
*157 _111_
*158 _112_
*159 _113_
*160 _114_
*161 _115_
*162 _116_
*163 _117_
*164 _118_
*165 _119_
*166 _120_
*167 _121_
*168 _122_
*169 _123_
*170 _124_
*171 _125_
*172 _126_
*173 _127_
*174 _128_
*175 _129_
*176 _130_
*177 _131_
*178 _132_
*179 _133_
*180 _134_
*181 _135_
*182 _136_
*183 _137_
*184 _138_
*185 _139_
*186 _140_
*187 _141_
*188 _142_
*189 _143_
*190 _144_
*191 _145_
*192 _146_
*193 _147_
*194 _148_
*195 _149_
*196 _150_
*197 _151_
*198 _152_
*199 _153_
*200 _154_
*201 _155_
*202 _156_
*203 _157_
*204 _158_
*205 _159_
*206 _160_
*207 _161_
*208 _162_
*209 _163_
*210 _164_
*211 _165_
*212 _166_
*213 _167_
*214 _168_
*215 _169_
*216 _170_
*217 _171_
*218 _172_
*219 _173_
*220 _174_
*221 _175_
*222 _176_
*223 clknet_0_clk
*224 clknet_1_0__leaf_clk
*225 clknet_1_1__leaf_clk
*226 data_out_0\[0\]
*227 data_out_0\[1\]
*228 data_out_0\[2\]
*229 data_out_0\[3\]
*230 data_out_0\[4\]
*231 data_out_0\[5\]
*232 data_out_0\[6\]
*233 data_out_0\[7\]
*234 ec\.count\[0\]
*235 ec\.count\[1\]
*236 ec\.count\[2\]
*237 ec\.pulseA
*238 net1
*239 net10
*240 net11
*241 net12
*242 net13
*243 net14
*244 net15
*245 net16
*246 net17
*247 net18
*248 net19
*249 net2
*250 net20
*251 net21
*252 net22
*253 net23
*254 net24
*255 net25
*256 net26
*257 net27
*258 net28
*259 net29
*260 net3
*261 net30
*262 net31
*263 net4
*264 net48
*265 net49
*266 net5
*267 net6
*268 net7
*269 net8
*270 net9
*271 pulse_sync\.FF\[0\]
*272 pulse_sync\.FF\[1\]
*273 pulse_sync\.FF\[2\]
*274 pulse_sync\.FF\[3\]
*275 pulse_sync\.FF\[4\]
*276 pulse_sync\.FF\[5\]
*277 pulse_sync\.FF\[6\]
*278 pulse_sync\.FF\[7\]
*279 pulse_sync\.ctrl
*280 pulse_sync\.data_in\[0\]
*281 pulse_sync\.data_in\[1\]
*282 pulse_sync\.data_in\[2\]
*283 pulse_sync\.data_in\[3\]
*284 pulse_sync\.data_in\[4\]
*285 pulse_sync\.data_in\[5\]
*286 pulse_sync\.data_in\[6\]
*287 pulse_sync\.data_in\[7\]
*288 pulse_sync\.stb_in
*289 pulse_sync\.stb_o
*290 tog_sync\.A
*291 tog_sync\.B1
*292 tog_sync\.B2
*293 tog_sync\.B3
*294 tog_sync\.DATA_A\[0\]
*295 tog_sync\.DATA_A\[1\]
*296 tog_sync\.DATA_A\[2\]
*297 tog_sync\.DATA_A\[3\]
*298 tog_sync\.DATA_A\[4\]
*299 tog_sync\.DATA_A\[5\]
*300 tog_sync\.DATA_A\[6\]
*301 tog_sync\.DATA_A\[7\]
*302 two_FF\.FF1\[0\]
*303 two_FF\.FF1\[1\]
*304 two_FF\.FF1\[2\]
*305 two_FF\.FF1\[3\]
*306 two_FF\.FF1\[4\]
*307 two_FF\.FF1\[5\]
*308 two_FF\.FF1\[6\]
*309 two_FF\.FF1\[7\]
*310 two_FF\.data_out\[0\]
*311 two_FF\.data_out\[1\]
*312 two_FF\.data_out\[2\]
*313 two_FF\.data_out\[3\]
*314 two_FF\.data_out\[4\]
*315 two_FF\.data_out\[5\]
*316 two_FF\.data_out\[6\]
*317 two_FF\.data_out\[7\]
*318 FILLER_0_0_109
*319 FILLER_0_0_113
*320 FILLER_0_0_125
*321 FILLER_0_0_137
*322 FILLER_0_0_141
*323 FILLER_0_0_15
*324 FILLER_0_0_153
*325 FILLER_0_0_165
*326 FILLER_0_0_169
*327 FILLER_0_0_181
*328 FILLER_0_0_193
*329 FILLER_0_0_197
*330 FILLER_0_0_209
*331 FILLER_0_0_221
*332 FILLER_0_0_225
*333 FILLER_0_0_237
*334 FILLER_0_0_249
*335 FILLER_0_0_253
*336 FILLER_0_0_265
*337 FILLER_0_0_27
*338 FILLER_0_0_277
*339 FILLER_0_0_281
*340 FILLER_0_0_29
*341 FILLER_0_0_293
*342 FILLER_0_0_3
*343 FILLER_0_0_305
*344 FILLER_0_0_309
*345 FILLER_0_0_321
*346 FILLER_0_0_333
*347 FILLER_0_0_337
*348 FILLER_0_0_349
*349 FILLER_0_0_41
*350 FILLER_0_0_53
*351 FILLER_0_0_57
*352 FILLER_0_0_69
*353 FILLER_0_0_81
*354 FILLER_0_0_85
*355 FILLER_0_0_97
*356 FILLER_0_10_109
*357 FILLER_0_10_121
*358 FILLER_0_10_133
*359 FILLER_0_10_139
*360 FILLER_0_10_141
*361 FILLER_0_10_15
*362 FILLER_0_10_153
*363 FILLER_0_10_165
*364 FILLER_0_10_177
*365 FILLER_0_10_189
*366 FILLER_0_10_195
*367 FILLER_0_10_197
*368 FILLER_0_10_209
*369 FILLER_0_10_221
*370 FILLER_0_10_233
*371 FILLER_0_10_245
*372 FILLER_0_10_251
*373 FILLER_0_10_253
*374 FILLER_0_10_265
*375 FILLER_0_10_27
*376 FILLER_0_10_277
*377 FILLER_0_10_289
*378 FILLER_0_10_29
*379 FILLER_0_10_3
*380 FILLER_0_10_301
*381 FILLER_0_10_307
*382 FILLER_0_10_309
*383 FILLER_0_10_321
*384 FILLER_0_10_333
*385 FILLER_0_10_345
*386 FILLER_0_10_41
*387 FILLER_0_10_53
*388 FILLER_0_10_65
*389 FILLER_0_10_77
*390 FILLER_0_10_83
*391 FILLER_0_10_85
*392 FILLER_0_10_97
*393 FILLER_0_11_105
*394 FILLER_0_11_111
*395 FILLER_0_11_113
*396 FILLER_0_11_125
*397 FILLER_0_11_137
*398 FILLER_0_11_149
*399 FILLER_0_11_15
*400 FILLER_0_11_161
*401 FILLER_0_11_167
*402 FILLER_0_11_169
*403 FILLER_0_11_181
*404 FILLER_0_11_193
*405 FILLER_0_11_205
*406 FILLER_0_11_217
*407 FILLER_0_11_223
*408 FILLER_0_11_225
*409 FILLER_0_11_237
*410 FILLER_0_11_249
*411 FILLER_0_11_261
*412 FILLER_0_11_27
*413 FILLER_0_11_273
*414 FILLER_0_11_279
*415 FILLER_0_11_281
*416 FILLER_0_11_293
*417 FILLER_0_11_3
*418 FILLER_0_11_305
*419 FILLER_0_11_317
*420 FILLER_0_11_329
*421 FILLER_0_11_335
*422 FILLER_0_11_337
*423 FILLER_0_11_349
*424 FILLER_0_11_39
*425 FILLER_0_11_51
*426 FILLER_0_11_55
*427 FILLER_0_11_57
*428 FILLER_0_11_69
*429 FILLER_0_11_81
*430 FILLER_0_11_93
*431 FILLER_0_12_109
*432 FILLER_0_12_121
*433 FILLER_0_12_133
*434 FILLER_0_12_139
*435 FILLER_0_12_141
*436 FILLER_0_12_15
*437 FILLER_0_12_153
*438 FILLER_0_12_165
*439 FILLER_0_12_177
*440 FILLER_0_12_189
*441 FILLER_0_12_195
*442 FILLER_0_12_197
*443 FILLER_0_12_209
*444 FILLER_0_12_221
*445 FILLER_0_12_233
*446 FILLER_0_12_245
*447 FILLER_0_12_251
*448 FILLER_0_12_253
*449 FILLER_0_12_265
*450 FILLER_0_12_27
*451 FILLER_0_12_277
*452 FILLER_0_12_289
*453 FILLER_0_12_29
*454 FILLER_0_12_3
*455 FILLER_0_12_301
*456 FILLER_0_12_307
*457 FILLER_0_12_309
*458 FILLER_0_12_321
*459 FILLER_0_12_333
*460 FILLER_0_12_345
*461 FILLER_0_12_41
*462 FILLER_0_12_53
*463 FILLER_0_12_65
*464 FILLER_0_12_77
*465 FILLER_0_12_83
*466 FILLER_0_12_85
*467 FILLER_0_12_97
*468 FILLER_0_13_105
*469 FILLER_0_13_111
*470 FILLER_0_13_113
*471 FILLER_0_13_125
*472 FILLER_0_13_137
*473 FILLER_0_13_149
*474 FILLER_0_13_15
*475 FILLER_0_13_161
*476 FILLER_0_13_167
*477 FILLER_0_13_169
*478 FILLER_0_13_181
*479 FILLER_0_13_193
*480 FILLER_0_13_205
*481 FILLER_0_13_217
*482 FILLER_0_13_223
*483 FILLER_0_13_225
*484 FILLER_0_13_237
*485 FILLER_0_13_249
*486 FILLER_0_13_261
*487 FILLER_0_13_27
*488 FILLER_0_13_273
*489 FILLER_0_13_279
*490 FILLER_0_13_281
*491 FILLER_0_13_293
*492 FILLER_0_13_3
*493 FILLER_0_13_305
*494 FILLER_0_13_317
*495 FILLER_0_13_329
*496 FILLER_0_13_335
*497 FILLER_0_13_337
*498 FILLER_0_13_349
*499 FILLER_0_13_39
*500 FILLER_0_13_51
*501 FILLER_0_13_55
*502 FILLER_0_13_57
*503 FILLER_0_13_69
*504 FILLER_0_13_81
*505 FILLER_0_13_93
*506 FILLER_0_14_109
*507 FILLER_0_14_121
*508 FILLER_0_14_133
*509 FILLER_0_14_139
*510 FILLER_0_14_141
*511 FILLER_0_14_15
*512 FILLER_0_14_153
*513 FILLER_0_14_165
*514 FILLER_0_14_177
*515 FILLER_0_14_189
*516 FILLER_0_14_195
*517 FILLER_0_14_197
*518 FILLER_0_14_209
*519 FILLER_0_14_221
*520 FILLER_0_14_233
*521 FILLER_0_14_245
*522 FILLER_0_14_251
*523 FILLER_0_14_253
*524 FILLER_0_14_265
*525 FILLER_0_14_27
*526 FILLER_0_14_277
*527 FILLER_0_14_289
*528 FILLER_0_14_29
*529 FILLER_0_14_3
*530 FILLER_0_14_301
*531 FILLER_0_14_307
*532 FILLER_0_14_309
*533 FILLER_0_14_321
*534 FILLER_0_14_333
*535 FILLER_0_14_345
*536 FILLER_0_14_41
*537 FILLER_0_14_53
*538 FILLER_0_14_65
*539 FILLER_0_14_77
*540 FILLER_0_14_83
*541 FILLER_0_14_85
*542 FILLER_0_14_97
*543 FILLER_0_15_105
*544 FILLER_0_15_111
*545 FILLER_0_15_113
*546 FILLER_0_15_125
*547 FILLER_0_15_137
*548 FILLER_0_15_149
*549 FILLER_0_15_15
*550 FILLER_0_15_161
*551 FILLER_0_15_167
*552 FILLER_0_15_169
*553 FILLER_0_15_181
*554 FILLER_0_15_193
*555 FILLER_0_15_205
*556 FILLER_0_15_217
*557 FILLER_0_15_223
*558 FILLER_0_15_225
*559 FILLER_0_15_237
*560 FILLER_0_15_249
*561 FILLER_0_15_261
*562 FILLER_0_15_27
*563 FILLER_0_15_273
*564 FILLER_0_15_279
*565 FILLER_0_15_281
*566 FILLER_0_15_293
*567 FILLER_0_15_3
*568 FILLER_0_15_305
*569 FILLER_0_15_317
*570 FILLER_0_15_329
*571 FILLER_0_15_335
*572 FILLER_0_15_337
*573 FILLER_0_15_349
*574 FILLER_0_15_39
*575 FILLER_0_15_51
*576 FILLER_0_15_55
*577 FILLER_0_15_57
*578 FILLER_0_15_69
*579 FILLER_0_15_81
*580 FILLER_0_15_93
*581 FILLER_0_16_109
*582 FILLER_0_16_121
*583 FILLER_0_16_133
*584 FILLER_0_16_139
*585 FILLER_0_16_141
*586 FILLER_0_16_15
*587 FILLER_0_16_153
*588 FILLER_0_16_165
*589 FILLER_0_16_177
*590 FILLER_0_16_189
*591 FILLER_0_16_195
*592 FILLER_0_16_197
*593 FILLER_0_16_209
*594 FILLER_0_16_221
*595 FILLER_0_16_233
*596 FILLER_0_16_245
*597 FILLER_0_16_251
*598 FILLER_0_16_253
*599 FILLER_0_16_265
*600 FILLER_0_16_27
*601 FILLER_0_16_277
*602 FILLER_0_16_289
*603 FILLER_0_16_29
*604 FILLER_0_16_3
*605 FILLER_0_16_301
*606 FILLER_0_16_307
*607 FILLER_0_16_309
*608 FILLER_0_16_321
*609 FILLER_0_16_333
*610 FILLER_0_16_345
*611 FILLER_0_16_41
*612 FILLER_0_16_53
*613 FILLER_0_16_65
*614 FILLER_0_16_77
*615 FILLER_0_16_83
*616 FILLER_0_16_85
*617 FILLER_0_16_97
*618 FILLER_0_17_105
*619 FILLER_0_17_111
*620 FILLER_0_17_113
*621 FILLER_0_17_125
*622 FILLER_0_17_137
*623 FILLER_0_17_149
*624 FILLER_0_17_15
*625 FILLER_0_17_161
*626 FILLER_0_17_167
*627 FILLER_0_17_169
*628 FILLER_0_17_181
*629 FILLER_0_17_193
*630 FILLER_0_17_205
*631 FILLER_0_17_217
*632 FILLER_0_17_223
*633 FILLER_0_17_225
*634 FILLER_0_17_237
*635 FILLER_0_17_249
*636 FILLER_0_17_261
*637 FILLER_0_17_27
*638 FILLER_0_17_273
*639 FILLER_0_17_279
*640 FILLER_0_17_281
*641 FILLER_0_17_293
*642 FILLER_0_17_3
*643 FILLER_0_17_305
*644 FILLER_0_17_317
*645 FILLER_0_17_329
*646 FILLER_0_17_335
*647 FILLER_0_17_337
*648 FILLER_0_17_349
*649 FILLER_0_17_39
*650 FILLER_0_17_51
*651 FILLER_0_17_55
*652 FILLER_0_17_57
*653 FILLER_0_17_69
*654 FILLER_0_17_81
*655 FILLER_0_17_93
*656 FILLER_0_18_109
*657 FILLER_0_18_121
*658 FILLER_0_18_133
*659 FILLER_0_18_139
*660 FILLER_0_18_141
*661 FILLER_0_18_15
*662 FILLER_0_18_153
*663 FILLER_0_18_165
*664 FILLER_0_18_177
*665 FILLER_0_18_189
*666 FILLER_0_18_195
*667 FILLER_0_18_197
*668 FILLER_0_18_209
*669 FILLER_0_18_221
*670 FILLER_0_18_233
*671 FILLER_0_18_245
*672 FILLER_0_18_251
*673 FILLER_0_18_253
*674 FILLER_0_18_265
*675 FILLER_0_18_27
*676 FILLER_0_18_277
*677 FILLER_0_18_289
*678 FILLER_0_18_29
*679 FILLER_0_18_3
*680 FILLER_0_18_301
*681 FILLER_0_18_307
*682 FILLER_0_18_309
*683 FILLER_0_18_321
*684 FILLER_0_18_333
*685 FILLER_0_18_345
*686 FILLER_0_18_41
*687 FILLER_0_18_53
*688 FILLER_0_18_65
*689 FILLER_0_18_77
*690 FILLER_0_18_83
*691 FILLER_0_18_85
*692 FILLER_0_18_97
*693 FILLER_0_19_105
*694 FILLER_0_19_111
*695 FILLER_0_19_113
*696 FILLER_0_19_125
*697 FILLER_0_19_137
*698 FILLER_0_19_149
*699 FILLER_0_19_15
*700 FILLER_0_19_161
*701 FILLER_0_19_167
*702 FILLER_0_19_169
*703 FILLER_0_19_181
*704 FILLER_0_19_193
*705 FILLER_0_19_205
*706 FILLER_0_19_217
*707 FILLER_0_19_223
*708 FILLER_0_19_225
*709 FILLER_0_19_237
*710 FILLER_0_19_249
*711 FILLER_0_19_261
*712 FILLER_0_19_27
*713 FILLER_0_19_273
*714 FILLER_0_19_279
*715 FILLER_0_19_281
*716 FILLER_0_19_293
*717 FILLER_0_19_3
*718 FILLER_0_19_305
*719 FILLER_0_19_317
*720 FILLER_0_19_329
*721 FILLER_0_19_335
*722 FILLER_0_19_337
*723 FILLER_0_19_349
*724 FILLER_0_19_39
*725 FILLER_0_19_51
*726 FILLER_0_19_55
*727 FILLER_0_19_57
*728 FILLER_0_19_69
*729 FILLER_0_19_81
*730 FILLER_0_19_93
*731 FILLER_0_1_105
*732 FILLER_0_1_111
*733 FILLER_0_1_113
*734 FILLER_0_1_125
*735 FILLER_0_1_137
*736 FILLER_0_1_149
*737 FILLER_0_1_15
*738 FILLER_0_1_161
*739 FILLER_0_1_167
*740 FILLER_0_1_169
*741 FILLER_0_1_181
*742 FILLER_0_1_193
*743 FILLER_0_1_205
*744 FILLER_0_1_217
*745 FILLER_0_1_223
*746 FILLER_0_1_225
*747 FILLER_0_1_237
*748 FILLER_0_1_249
*749 FILLER_0_1_261
*750 FILLER_0_1_27
*751 FILLER_0_1_273
*752 FILLER_0_1_279
*753 FILLER_0_1_281
*754 FILLER_0_1_293
*755 FILLER_0_1_3
*756 FILLER_0_1_305
*757 FILLER_0_1_317
*758 FILLER_0_1_329
*759 FILLER_0_1_335
*760 FILLER_0_1_337
*761 FILLER_0_1_349
*762 FILLER_0_1_39
*763 FILLER_0_1_51
*764 FILLER_0_1_55
*765 FILLER_0_1_57
*766 FILLER_0_1_69
*767 FILLER_0_1_81
*768 FILLER_0_1_93
*769 FILLER_0_20_109
*770 FILLER_0_20_121
*771 FILLER_0_20_133
*772 FILLER_0_20_139
*773 FILLER_0_20_141
*774 FILLER_0_20_15
*775 FILLER_0_20_153
*776 FILLER_0_20_165
*777 FILLER_0_20_177
*778 FILLER_0_20_189
*779 FILLER_0_20_195
*780 FILLER_0_20_197
*781 FILLER_0_20_209
*782 FILLER_0_20_221
*783 FILLER_0_20_233
*784 FILLER_0_20_245
*785 FILLER_0_20_251
*786 FILLER_0_20_253
*787 FILLER_0_20_265
*788 FILLER_0_20_27
*789 FILLER_0_20_277
*790 FILLER_0_20_289
*791 FILLER_0_20_29
*792 FILLER_0_20_3
*793 FILLER_0_20_301
*794 FILLER_0_20_307
*795 FILLER_0_20_309
*796 FILLER_0_20_321
*797 FILLER_0_20_333
*798 FILLER_0_20_345
*799 FILLER_0_20_41
*800 FILLER_0_20_53
*801 FILLER_0_20_65
*802 FILLER_0_20_77
*803 FILLER_0_20_83
*804 FILLER_0_20_85
*805 FILLER_0_20_97
*806 FILLER_0_21_105
*807 FILLER_0_21_111
*808 FILLER_0_21_113
*809 FILLER_0_21_125
*810 FILLER_0_21_137
*811 FILLER_0_21_149
*812 FILLER_0_21_15
*813 FILLER_0_21_161
*814 FILLER_0_21_167
*815 FILLER_0_21_169
*816 FILLER_0_21_181
*817 FILLER_0_21_193
*818 FILLER_0_21_205
*819 FILLER_0_21_217
*820 FILLER_0_21_223
*821 FILLER_0_21_225
*822 FILLER_0_21_237
*823 FILLER_0_21_249
*824 FILLER_0_21_261
*825 FILLER_0_21_27
*826 FILLER_0_21_273
*827 FILLER_0_21_279
*828 FILLER_0_21_281
*829 FILLER_0_21_293
*830 FILLER_0_21_3
*831 FILLER_0_21_305
*832 FILLER_0_21_317
*833 FILLER_0_21_329
*834 FILLER_0_21_335
*835 FILLER_0_21_337
*836 FILLER_0_21_349
*837 FILLER_0_21_39
*838 FILLER_0_21_51
*839 FILLER_0_21_55
*840 FILLER_0_21_57
*841 FILLER_0_21_69
*842 FILLER_0_21_81
*843 FILLER_0_21_93
*844 FILLER_0_22_109
*845 FILLER_0_22_121
*846 FILLER_0_22_133
*847 FILLER_0_22_139
*848 FILLER_0_22_141
*849 FILLER_0_22_15
*850 FILLER_0_22_153
*851 FILLER_0_22_165
*852 FILLER_0_22_177
*853 FILLER_0_22_189
*854 FILLER_0_22_195
*855 FILLER_0_22_197
*856 FILLER_0_22_209
*857 FILLER_0_22_221
*858 FILLER_0_22_233
*859 FILLER_0_22_245
*860 FILLER_0_22_251
*861 FILLER_0_22_253
*862 FILLER_0_22_265
*863 FILLER_0_22_27
*864 FILLER_0_22_277
*865 FILLER_0_22_289
*866 FILLER_0_22_29
*867 FILLER_0_22_3
*868 FILLER_0_22_301
*869 FILLER_0_22_307
*870 FILLER_0_22_309
*871 FILLER_0_22_321
*872 FILLER_0_22_333
*873 FILLER_0_22_345
*874 FILLER_0_22_41
*875 FILLER_0_22_53
*876 FILLER_0_22_65
*877 FILLER_0_22_77
*878 FILLER_0_22_83
*879 FILLER_0_22_85
*880 FILLER_0_22_97
*881 FILLER_0_23_105
*882 FILLER_0_23_111
*883 FILLER_0_23_113
*884 FILLER_0_23_125
*885 FILLER_0_23_137
*886 FILLER_0_23_149
*887 FILLER_0_23_15
*888 FILLER_0_23_161
*889 FILLER_0_23_167
*890 FILLER_0_23_169
*891 FILLER_0_23_181
*892 FILLER_0_23_193
*893 FILLER_0_23_205
*894 FILLER_0_23_217
*895 FILLER_0_23_223
*896 FILLER_0_23_225
*897 FILLER_0_23_237
*898 FILLER_0_23_249
*899 FILLER_0_23_27
*900 FILLER_0_23_277
*901 FILLER_0_23_281
*902 FILLER_0_23_293
*903 FILLER_0_23_3
*904 FILLER_0_23_305
*905 FILLER_0_23_317
*906 FILLER_0_23_329
*907 FILLER_0_23_335
*908 FILLER_0_23_337
*909 FILLER_0_23_349
*910 FILLER_0_23_39
*911 FILLER_0_23_51
*912 FILLER_0_23_55
*913 FILLER_0_23_57
*914 FILLER_0_23_69
*915 FILLER_0_23_81
*916 FILLER_0_23_93
*917 FILLER_0_24_109
*918 FILLER_0_24_121
*919 FILLER_0_24_133
*920 FILLER_0_24_139
*921 FILLER_0_24_141
*922 FILLER_0_24_15
*923 FILLER_0_24_153
*924 FILLER_0_24_157
*925 FILLER_0_24_187
*926 FILLER_0_24_195
*927 FILLER_0_24_197
*928 FILLER_0_24_223
*929 FILLER_0_24_247
*930 FILLER_0_24_251
*931 FILLER_0_24_253
*932 FILLER_0_24_27
*933 FILLER_0_24_278
*934 FILLER_0_24_29
*935 FILLER_0_24_290
*936 FILLER_0_24_295
*937 FILLER_0_24_3
*938 FILLER_0_24_307
*939 FILLER_0_24_309
*940 FILLER_0_24_321
*941 FILLER_0_24_333
*942 FILLER_0_24_345
*943 FILLER_0_24_41
*944 FILLER_0_24_53
*945 FILLER_0_24_65
*946 FILLER_0_24_77
*947 FILLER_0_24_83
*948 FILLER_0_24_85
*949 FILLER_0_24_97
*950 FILLER_0_25_122
*951 FILLER_0_25_148
*952 FILLER_0_25_15
*953 FILLER_0_25_160
*954 FILLER_0_25_164
*955 FILLER_0_25_189
*956 FILLER_0_25_221
*957 FILLER_0_25_225
*958 FILLER_0_25_241
*959 FILLER_0_25_253
*960 FILLER_0_25_27
*961 FILLER_0_25_272
*962 FILLER_0_25_3
*963 FILLER_0_25_321
*964 FILLER_0_25_333
*965 FILLER_0_25_337
*966 FILLER_0_25_349
*967 FILLER_0_25_39
*968 FILLER_0_25_51
*969 FILLER_0_25_55
*970 FILLER_0_25_57
*971 FILLER_0_25_69
*972 FILLER_0_25_81
*973 FILLER_0_25_89
*974 FILLER_0_26_117
*975 FILLER_0_26_15
*976 FILLER_0_26_153
*977 FILLER_0_26_161
*978 FILLER_0_26_166
*979 FILLER_0_26_187
*980 FILLER_0_26_195
*981 FILLER_0_26_197
*982 FILLER_0_26_211
*983 FILLER_0_26_221
*984 FILLER_0_26_233
*985 FILLER_0_26_244
*986 FILLER_0_26_253
*987 FILLER_0_26_261
*988 FILLER_0_26_27
*989 FILLER_0_26_271
*990 FILLER_0_26_29
*991 FILLER_0_26_3
*992 FILLER_0_26_303
*993 FILLER_0_26_307
*994 FILLER_0_26_309
*995 FILLER_0_26_321
*996 FILLER_0_26_343
*997 FILLER_0_26_41
*998 FILLER_0_26_53
*999 FILLER_0_26_65
*1000 FILLER_0_26_77
*1001 FILLER_0_26_83
*1002 FILLER_0_26_85
*1003 FILLER_0_26_93
*1004 FILLER_0_27_101
*1005 FILLER_0_27_106
*1006 FILLER_0_27_113
*1007 FILLER_0_27_148
*1008 FILLER_0_27_15
*1009 FILLER_0_27_156
*1010 FILLER_0_27_169
*1011 FILLER_0_27_174
*1012 FILLER_0_27_191
*1013 FILLER_0_27_195
*1014 FILLER_0_27_219
*1015 FILLER_0_27_223
*1016 FILLER_0_27_232
*1017 FILLER_0_27_236
*1018 FILLER_0_27_257
*1019 FILLER_0_27_269
*1020 FILLER_0_27_27
*1021 FILLER_0_27_278
*1022 FILLER_0_27_281
*1023 FILLER_0_27_3
*1024 FILLER_0_27_311
*1025 FILLER_0_27_323
*1026 FILLER_0_27_331
*1027 FILLER_0_27_335
*1028 FILLER_0_27_337
*1029 FILLER_0_27_349
*1030 FILLER_0_27_39
*1031 FILLER_0_27_51
*1032 FILLER_0_27_55
*1033 FILLER_0_27_57
*1034 FILLER_0_27_69
*1035 FILLER_0_27_81
*1036 FILLER_0_27_93
*1037 FILLER_0_28_105
*1038 FILLER_0_28_118
*1039 FILLER_0_28_138
*1040 FILLER_0_28_141
*1041 FILLER_0_28_15
*1042 FILLER_0_28_153
*1043 FILLER_0_28_185
*1044 FILLER_0_28_193
*1045 FILLER_0_28_197
*1046 FILLER_0_28_226
*1047 FILLER_0_28_27
*1048 FILLER_0_28_279
*1049 FILLER_0_28_29
*1050 FILLER_0_28_3
*1051 FILLER_0_28_302
*1052 FILLER_0_28_316
*1053 FILLER_0_28_342
*1054 FILLER_0_28_350
*1055 FILLER_0_28_41
*1056 FILLER_0_28_53
*1057 FILLER_0_28_65
*1058 FILLER_0_28_77
*1059 FILLER_0_28_83
*1060 FILLER_0_29_100
*1061 FILLER_0_29_113
*1062 FILLER_0_29_128
*1063 FILLER_0_29_136
*1064 FILLER_0_29_145
*1065 FILLER_0_29_15
*1066 FILLER_0_29_157
*1067 FILLER_0_29_161
*1068 FILLER_0_29_165
*1069 FILLER_0_29_189
*1070 FILLER_0_29_232
*1071 FILLER_0_29_236
*1072 FILLER_0_29_268
*1073 FILLER_0_29_27
*1074 FILLER_0_29_3
*1075 FILLER_0_29_310
*1076 FILLER_0_29_350
*1077 FILLER_0_29_39
*1078 FILLER_0_29_51
*1079 FILLER_0_29_55
*1080 FILLER_0_29_57
*1081 FILLER_0_29_69
*1082 FILLER_0_2_109
*1083 FILLER_0_2_121
*1084 FILLER_0_2_133
*1085 FILLER_0_2_139
*1086 FILLER_0_2_141
*1087 FILLER_0_2_15
*1088 FILLER_0_2_153
*1089 FILLER_0_2_165
*1090 FILLER_0_2_177
*1091 FILLER_0_2_189
*1092 FILLER_0_2_195
*1093 FILLER_0_2_197
*1094 FILLER_0_2_209
*1095 FILLER_0_2_221
*1096 FILLER_0_2_233
*1097 FILLER_0_2_245
*1098 FILLER_0_2_251
*1099 FILLER_0_2_253
*1100 FILLER_0_2_265
*1101 FILLER_0_2_27
*1102 FILLER_0_2_277
*1103 FILLER_0_2_289
*1104 FILLER_0_2_29
*1105 FILLER_0_2_3
*1106 FILLER_0_2_301
*1107 FILLER_0_2_307
*1108 FILLER_0_2_309
*1109 FILLER_0_2_321
*1110 FILLER_0_2_333
*1111 FILLER_0_2_345
*1112 FILLER_0_2_41
*1113 FILLER_0_2_53
*1114 FILLER_0_2_65
*1115 FILLER_0_2_77
*1116 FILLER_0_2_83
*1117 FILLER_0_2_85
*1118 FILLER_0_2_97
*1119 FILLER_0_30_121
*1120 FILLER_0_30_137
*1121 FILLER_0_30_148
*1122 FILLER_0_30_15
*1123 FILLER_0_30_160
*1124 FILLER_0_30_175
*1125 FILLER_0_30_207
*1126 FILLER_0_30_222
*1127 FILLER_0_30_234
*1128 FILLER_0_30_242
*1129 FILLER_0_30_267
*1130 FILLER_0_30_27
*1131 FILLER_0_30_275
*1132 FILLER_0_30_284
*1133 FILLER_0_30_29
*1134 FILLER_0_30_3
*1135 FILLER_0_30_300
*1136 FILLER_0_30_309
*1137 FILLER_0_30_343
*1138 FILLER_0_30_41
*1139 FILLER_0_30_53
*1140 FILLER_0_30_65
*1141 FILLER_0_30_77
*1142 FILLER_0_31_113
*1143 FILLER_0_31_147
*1144 FILLER_0_31_15
*1145 FILLER_0_31_159
*1146 FILLER_0_31_167
*1147 FILLER_0_31_169
*1148 FILLER_0_31_189
*1149 FILLER_0_31_197
*1150 FILLER_0_31_208
*1151 FILLER_0_31_214
*1152 FILLER_0_31_222
*1153 FILLER_0_31_225
*1154 FILLER_0_31_237
*1155 FILLER_0_31_249
*1156 FILLER_0_31_265
*1157 FILLER_0_31_27
*1158 FILLER_0_31_277
*1159 FILLER_0_31_281
*1160 FILLER_0_31_285
*1161 FILLER_0_31_291
*1162 FILLER_0_31_3
*1163 FILLER_0_31_315
*1164 FILLER_0_31_321
*1165 FILLER_0_31_334
*1166 FILLER_0_31_340
*1167 FILLER_0_31_348
*1168 FILLER_0_31_39
*1169 FILLER_0_31_51
*1170 FILLER_0_31_55
*1171 FILLER_0_31_57
*1172 FILLER_0_31_69
*1173 FILLER_0_31_73
*1174 FILLER_0_32_110
*1175 FILLER_0_32_122
*1176 FILLER_0_32_128
*1177 FILLER_0_32_15
*1178 FILLER_0_32_155
*1179 FILLER_0_32_184
*1180 FILLER_0_32_217
*1181 FILLER_0_32_244
*1182 FILLER_0_32_27
*1183 FILLER_0_32_273
*1184 FILLER_0_32_29
*1185 FILLER_0_32_3
*1186 FILLER_0_32_306
*1187 FILLER_0_32_325
*1188 FILLER_0_32_337
*1189 FILLER_0_32_349
*1190 FILLER_0_32_41
*1191 FILLER_0_32_53
*1192 FILLER_0_32_65
*1193 FILLER_0_32_77
*1194 FILLER_0_32_85
*1195 FILLER_0_32_98
*1196 FILLER_0_33_107
*1197 FILLER_0_33_111
*1198 FILLER_0_33_113
*1199 FILLER_0_33_117
*1200 FILLER_0_33_121
*1201 FILLER_0_33_140
*1202 FILLER_0_33_15
*1203 FILLER_0_33_152
*1204 FILLER_0_33_158
*1205 FILLER_0_33_189
*1206 FILLER_0_33_27
*1207 FILLER_0_33_281
*1208 FILLER_0_33_3
*1209 FILLER_0_33_310
*1210 FILLER_0_33_322
*1211 FILLER_0_33_328
*1212 FILLER_0_33_333
*1213 FILLER_0_33_345
*1214 FILLER_0_33_39
*1215 FILLER_0_33_51
*1216 FILLER_0_33_55
*1217 FILLER_0_33_57
*1218 FILLER_0_33_69
*1219 FILLER_0_33_95
*1220 FILLER_0_34_106
*1221 FILLER_0_34_139
*1222 FILLER_0_34_141
*1223 FILLER_0_34_15
*1224 FILLER_0_34_156
*1225 FILLER_0_34_168
*1226 FILLER_0_34_179
*1227 FILLER_0_34_191
*1228 FILLER_0_34_197
*1229 FILLER_0_34_222
*1230 FILLER_0_34_238
*1231 FILLER_0_34_247
*1232 FILLER_0_34_27
*1233 FILLER_0_34_29
*1234 FILLER_0_34_3
*1235 FILLER_0_34_304
*1236 FILLER_0_34_312
*1237 FILLER_0_34_320
*1238 FILLER_0_34_346
*1239 FILLER_0_34_350
*1240 FILLER_0_34_41
*1241 FILLER_0_34_53
*1242 FILLER_0_34_61
*1243 FILLER_0_35_102
*1244 FILLER_0_35_110
*1245 FILLER_0_35_122
*1246 FILLER_0_35_15
*1247 FILLER_0_35_156
*1248 FILLER_0_35_169
*1249 FILLER_0_35_180
*1250 FILLER_0_35_192
*1251 FILLER_0_35_196
*1252 FILLER_0_35_205
*1253 FILLER_0_35_212
*1254 FILLER_0_35_225
*1255 FILLER_0_35_237
*1256 FILLER_0_35_27
*1257 FILLER_0_35_276
*1258 FILLER_0_35_281
*1259 FILLER_0_35_3
*1260 FILLER_0_35_335
*1261 FILLER_0_35_39
*1262 FILLER_0_35_51
*1263 FILLER_0_35_55
*1264 FILLER_0_35_57
*1265 FILLER_0_35_69
*1266 FILLER_0_36_141
*1267 FILLER_0_36_15
*1268 FILLER_0_36_153
*1269 FILLER_0_36_189
*1270 FILLER_0_36_195
*1271 FILLER_0_36_200
*1272 FILLER_0_36_233
*1273 FILLER_0_36_237
*1274 FILLER_0_36_250
*1275 FILLER_0_36_253
*1276 FILLER_0_36_27
*1277 FILLER_0_36_29
*1278 FILLER_0_36_3
*1279 FILLER_0_36_309
*1280 FILLER_0_36_321
*1281 FILLER_0_36_345
*1282 FILLER_0_36_41
*1283 FILLER_0_36_53
*1284 FILLER_0_36_65
*1285 FILLER_0_36_77
*1286 FILLER_0_36_83
*1287 FILLER_0_36_88
*1288 FILLER_0_37_105
*1289 FILLER_0_37_143
*1290 FILLER_0_37_15
*1291 FILLER_0_37_225
*1292 FILLER_0_37_27
*1293 FILLER_0_37_270
*1294 FILLER_0_37_281
*1295 FILLER_0_37_3
*1296 FILLER_0_37_334
*1297 FILLER_0_37_39
*1298 FILLER_0_37_51
*1299 FILLER_0_37_55
*1300 FILLER_0_37_57
*1301 FILLER_0_37_69
*1302 FILLER_0_37_97
*1303 FILLER_0_38_102
*1304 FILLER_0_38_106
*1305 FILLER_0_38_110
*1306 FILLER_0_38_113
*1307 FILLER_0_38_122
*1308 FILLER_0_38_126
*1309 FILLER_0_38_130
*1310 FILLER_0_38_134
*1311 FILLER_0_38_14
*1312 FILLER_0_38_141
*1313 FILLER_0_38_153
*1314 FILLER_0_38_161
*1315 FILLER_0_38_18
*1316 FILLER_0_38_181
*1317 FILLER_0_38_193
*1318 FILLER_0_38_197
*1319 FILLER_0_38_206
*1320 FILLER_0_38_210
*1321 FILLER_0_38_217
*1322 FILLER_0_38_22
*1323 FILLER_0_38_222
*1324 FILLER_0_38_225
*1325 FILLER_0_38_230
*1326 FILLER_0_38_234
*1327 FILLER_0_38_238
*1328 FILLER_0_38_256
*1329 FILLER_0_38_274
*1330 FILLER_0_38_290
*1331 FILLER_0_38_3
*1332 FILLER_0_38_306
*1333 FILLER_0_38_313
*1334 FILLER_0_38_32
*1335 FILLER_0_38_321
*1336 FILLER_0_38_326
*1337 FILLER_0_38_330
*1338 FILLER_0_38_334
*1339 FILLER_0_38_337
*1340 FILLER_0_38_350
*1341 FILLER_0_38_38
*1342 FILLER_0_38_42
*1343 FILLER_0_38_46
*1344 FILLER_0_38_50
*1345 FILLER_0_38_54
*1346 FILLER_0_38_57
*1347 FILLER_0_38_62
*1348 FILLER_0_38_66
*1349 FILLER_0_38_70
*1350 FILLER_0_38_74
*1351 FILLER_0_38_78
*1352 FILLER_0_38_88
*1353 FILLER_0_38_94
*1354 FILLER_0_38_98
*1355 FILLER_0_3_105
*1356 FILLER_0_3_111
*1357 FILLER_0_3_113
*1358 FILLER_0_3_125
*1359 FILLER_0_3_137
*1360 FILLER_0_3_149
*1361 FILLER_0_3_15
*1362 FILLER_0_3_161
*1363 FILLER_0_3_167
*1364 FILLER_0_3_169
*1365 FILLER_0_3_181
*1366 FILLER_0_3_193
*1367 FILLER_0_3_205
*1368 FILLER_0_3_217
*1369 FILLER_0_3_223
*1370 FILLER_0_3_225
*1371 FILLER_0_3_237
*1372 FILLER_0_3_249
*1373 FILLER_0_3_261
*1374 FILLER_0_3_27
*1375 FILLER_0_3_273
*1376 FILLER_0_3_279
*1377 FILLER_0_3_281
*1378 FILLER_0_3_293
*1379 FILLER_0_3_3
*1380 FILLER_0_3_305
*1381 FILLER_0_3_317
*1382 FILLER_0_3_329
*1383 FILLER_0_3_335
*1384 FILLER_0_3_337
*1385 FILLER_0_3_349
*1386 FILLER_0_3_39
*1387 FILLER_0_3_51
*1388 FILLER_0_3_55
*1389 FILLER_0_3_57
*1390 FILLER_0_3_69
*1391 FILLER_0_3_81
*1392 FILLER_0_3_93
*1393 FILLER_0_4_109
*1394 FILLER_0_4_121
*1395 FILLER_0_4_133
*1396 FILLER_0_4_139
*1397 FILLER_0_4_141
*1398 FILLER_0_4_15
*1399 FILLER_0_4_153
*1400 FILLER_0_4_165
*1401 FILLER_0_4_177
*1402 FILLER_0_4_189
*1403 FILLER_0_4_195
*1404 FILLER_0_4_197
*1405 FILLER_0_4_209
*1406 FILLER_0_4_221
*1407 FILLER_0_4_233
*1408 FILLER_0_4_245
*1409 FILLER_0_4_251
*1410 FILLER_0_4_253
*1411 FILLER_0_4_265
*1412 FILLER_0_4_27
*1413 FILLER_0_4_277
*1414 FILLER_0_4_289
*1415 FILLER_0_4_29
*1416 FILLER_0_4_3
*1417 FILLER_0_4_301
*1418 FILLER_0_4_307
*1419 FILLER_0_4_309
*1420 FILLER_0_4_321
*1421 FILLER_0_4_333
*1422 FILLER_0_4_345
*1423 FILLER_0_4_41
*1424 FILLER_0_4_53
*1425 FILLER_0_4_65
*1426 FILLER_0_4_77
*1427 FILLER_0_4_83
*1428 FILLER_0_4_85
*1429 FILLER_0_4_97
*1430 FILLER_0_5_105
*1431 FILLER_0_5_111
*1432 FILLER_0_5_113
*1433 FILLER_0_5_125
*1434 FILLER_0_5_137
*1435 FILLER_0_5_149
*1436 FILLER_0_5_15
*1437 FILLER_0_5_161
*1438 FILLER_0_5_167
*1439 FILLER_0_5_169
*1440 FILLER_0_5_181
*1441 FILLER_0_5_193
*1442 FILLER_0_5_205
*1443 FILLER_0_5_217
*1444 FILLER_0_5_223
*1445 FILLER_0_5_225
*1446 FILLER_0_5_237
*1447 FILLER_0_5_249
*1448 FILLER_0_5_261
*1449 FILLER_0_5_27
*1450 FILLER_0_5_273
*1451 FILLER_0_5_279
*1452 FILLER_0_5_281
*1453 FILLER_0_5_293
*1454 FILLER_0_5_3
*1455 FILLER_0_5_305
*1456 FILLER_0_5_317
*1457 FILLER_0_5_329
*1458 FILLER_0_5_335
*1459 FILLER_0_5_337
*1460 FILLER_0_5_349
*1461 FILLER_0_5_39
*1462 FILLER_0_5_51
*1463 FILLER_0_5_55
*1464 FILLER_0_5_57
*1465 FILLER_0_5_69
*1466 FILLER_0_5_81
*1467 FILLER_0_5_93
*1468 FILLER_0_6_109
*1469 FILLER_0_6_121
*1470 FILLER_0_6_133
*1471 FILLER_0_6_139
*1472 FILLER_0_6_141
*1473 FILLER_0_6_15
*1474 FILLER_0_6_153
*1475 FILLER_0_6_165
*1476 FILLER_0_6_177
*1477 FILLER_0_6_189
*1478 FILLER_0_6_195
*1479 FILLER_0_6_197
*1480 FILLER_0_6_209
*1481 FILLER_0_6_221
*1482 FILLER_0_6_233
*1483 FILLER_0_6_245
*1484 FILLER_0_6_251
*1485 FILLER_0_6_253
*1486 FILLER_0_6_265
*1487 FILLER_0_6_27
*1488 FILLER_0_6_277
*1489 FILLER_0_6_289
*1490 FILLER_0_6_29
*1491 FILLER_0_6_3
*1492 FILLER_0_6_301
*1493 FILLER_0_6_307
*1494 FILLER_0_6_309
*1495 FILLER_0_6_321
*1496 FILLER_0_6_333
*1497 FILLER_0_6_345
*1498 FILLER_0_6_41
*1499 FILLER_0_6_53
*1500 FILLER_0_6_65
*1501 FILLER_0_6_77
*1502 FILLER_0_6_83
*1503 FILLER_0_6_85
*1504 FILLER_0_6_97
*1505 FILLER_0_7_105
*1506 FILLER_0_7_111
*1507 FILLER_0_7_113
*1508 FILLER_0_7_125
*1509 FILLER_0_7_137
*1510 FILLER_0_7_149
*1511 FILLER_0_7_15
*1512 FILLER_0_7_161
*1513 FILLER_0_7_167
*1514 FILLER_0_7_169
*1515 FILLER_0_7_181
*1516 FILLER_0_7_193
*1517 FILLER_0_7_205
*1518 FILLER_0_7_217
*1519 FILLER_0_7_223
*1520 FILLER_0_7_225
*1521 FILLER_0_7_237
*1522 FILLER_0_7_249
*1523 FILLER_0_7_261
*1524 FILLER_0_7_27
*1525 FILLER_0_7_273
*1526 FILLER_0_7_279
*1527 FILLER_0_7_281
*1528 FILLER_0_7_293
*1529 FILLER_0_7_3
*1530 FILLER_0_7_305
*1531 FILLER_0_7_317
*1532 FILLER_0_7_329
*1533 FILLER_0_7_335
*1534 FILLER_0_7_337
*1535 FILLER_0_7_349