*SPEF "ieee 1481-1999"
*DESIGN "tt_um_wokwi_372347167704674305"
*DATE "11:11:11 Fri 11 11, 1111"
*VENDOR "OpenRCX"
*PROGRAM "Parallel Extraction"
*VERSION "1.0"
*DESIGN_FLOW "NAME_SCOPE LOCAL" "PIN_CAP NONE"
*DIVIDER /
*DELIMITER :
*BUS_DELIMITER []
*T_UNIT 1 NS
*C_UNIT 1 PF
*R_UNIT 1 OHM
*L_UNIT 1 HENRY

*NAME_MAP
*3 clk
*4 ena
*5 rst_n
*6 ui_in[0]
*7 ui_in[1]
*8 ui_in[2]
*9 ui_in[3]
*10 ui_in[4]
*11 ui_in[5]
*12 ui_in[6]
*13 ui_in[7]
*14 uio_in[0]
*15 uio_in[1]
*16 uio_in[2]
*17 uio_in[3]
*18 uio_in[4]
*19 uio_in[5]
*20 uio_in[6]
*21 uio_in[7]
*22 uio_oe[0]
*23 net21
*24 uio_oe[2]
*25 net33
*26 net34
*27 net35
*28 net36
*29 net37
*30 net22
*31 net23
*32 net24
*33 uio_out[3]
*34 uio_out[4]
*35 uio_out[5]
*36 uio_out[6]
*37 uio_out[7]
*38 uo_out[0]
*39 uo_out[1]
*40 uo_out[2]
*41 uo_out[3]
*42 uo_out[4]
*43 uo_out[5]
*44 uo_out[6]
*45 uo_out[7]
*46 _000_
*47 _001_
*48 _002_
*49 _003_
*50 _004_
*51 _005_
*52 _006_
*53 _007_
*54 _008_
*55 _009_
*56 _010_
*57 _011_
*58 _012_
*59 _013_
*60 _014_
*61 _015_
*62 _016_
*63 _017_
*64 _018_
*65 _019_
*66 _020_
*67 _021_
*68 _022_
*69 _023_
*70 _024_
*71 _025_
*72 _026_
*73 _027_
*74 _028_
*75 _029_
*76 _030_
*77 _031_
*78 _032_
*79 _033_
*80 _034_
*81 _035_
*82 _036_
*83 _037_
*84 _038_
*85 _039_
*86 _040_
*87 _041_
*88 _042_
*89 _043_
*90 _044_
*91 _045_
*92 _046_
*93 _047_
*94 _048_
*95 _049_
*96 _050_
*97 _051_
*98 _052_
*99 _053_
*100 _054_
*101 _055_
*102 _056_
*103 _057_
*104 _058_
*105 _059_
*106 _060_
*107 _061_
*108 _062_
*109 _063_
*110 _064_
*111 _065_
*112 _066_
*113 _067_
*114 _068_
*115 _069_
*116 _070_
*117 _071_
*118 _072_
*119 _073_
*120 _074_
*121 _075_
*122 _076_
*123 _077_
*124 _078_
*125 _079_
*126 _080_
*127 _081_
*128 _082_
*129 _083_
*130 _084_
*131 _085_
*132 _086_
*133 _087_
*134 _088_
*135 _089_
*136 _090_
*137 _091_
*138 _092_
*139 _093_
*140 _094_
*141 _095_
*142 _096_
*143 _097_
*144 _098_
*145 _099_
*146 _100_
*147 _101_
*148 _102_
*149 _103_
*150 _104_
*151 _105_
*152 _106_
*153 _107_
*154 _108_
*155 _109_
*156 _110_
*157 _111_
*158 _112_
*159 _113_
*160 _114_
*161 _115_
*162 _116_
*163 _117_
*164 _118_
*165 _119_
*166 _120_
*167 _121_
*168 _122_
*169 _123_
*170 _124_
*171 _125_
*172 _126_
*173 _127_
*174 _128_
*175 _129_
*176 _130_
*177 _131_
*178 _132_
*179 _133_
*180 _134_
*181 _135_
*182 _136_
*183 _137_
*184 _138_
*185 _139_
*186 _140_
*187 _141_
*188 _142_
*189 _143_
*190 _144_
*191 _145_
*192 _146_
*193 _147_
*194 _148_
*195 _149_
*196 _150_
*197 _151_
*198 _152_
*199 _153_
*200 _154_
*201 _155_
*202 _156_
*203 _157_
*204 _158_
*205 _159_
*206 _160_
*207 _161_
*208 _162_
*209 _163_
*210 _164_
*211 _165_
*212 _166_
*213 _167_
*214 _168_
*215 _169_
*216 _170_
*217 _171_
*218 _172_
*219 _173_
*220 _174_
*221 _175_
*222 _176_
*223 _177_
*224 _178_
*225 _179_
*226 _180_
*227 _181_
*228 _182_
*229 _183_
*230 _184_
*231 _185_
*232 _186_
*233 _187_
*234 _188_
*235 _189_
*236 _190_
*237 _191_
*238 _192_
*239 _193_
*240 _194_
*241 _195_
*242 _196_
*243 _197_
*244 _198_
*245 _199_
*246 _200_
*247 _201_
*248 _202_
*249 _203_
*250 _204_
*251 _205_
*252 _206_
*253 _207_
*254 and1\.a
*255 and1\.out
*256 and10\.a
*257 and10\.b
*258 and11\.a
*259 and12\.b
*260 and13\.a
*261 and16\.a
*262 and17\.b
*263 and19\.b
*264 and2\.a
*265 and2\.out
*266 and20\.out
*267 and21\.out
*268 and22\.b
*269 and23\.b
*270 and24\.b
*271 and26\.b
*272 and28\.b
*273 and28\.out
*274 and29\.out
*275 and3\.a
*276 and3\.out
*277 and30\.a
*278 and30\.b
*279 and30\.out
*280 and31\.b
*281 and31\.out
*282 and32\.b
*283 and32\.out
*284 and33\.b
*285 and33\.out
*286 and34\.a
*287 and34\.out
*288 and35\.a
*289 and35\.out
*290 and36\.a
*291 and36\.out
*292 and37\.a
*293 and37\.out
*294 and38\.a
*295 and38\.out
*296 and39\.b
*297 and39\.out
*298 and4\.a
*299 and4\.out
*300 and41\.a
*301 and41\.out
*302 and42\.b
*303 and42\.out
*304 and43\.out
*305 and47\.out
*306 and5\.a
*307 and5\.out
*308 and6\.a
*309 and6\.out
*310 and7\.a
*311 and7\.out
*312 and8\.out
*313 and9\.out
*314 clknet_0_and8\.out
*315 clknet_0_clk
*316 clknet_1_0__leaf_and8\.out
*317 clknet_1_0__leaf_clk
*318 clknet_1_1__leaf_and8\.out
*319 clknet_1_1__leaf_clk
*320 flop1\.d
*321 flop1\.q
*322 flop10\.clk
*323 flop12\.d
*324 flop13\.d
*325 flop13\.q
*326 flop15\.d
*327 flop15\.q
*328 flop16\.q
*329 flop17\.q
*330 flop19\.d
*331 flop19\.q
*332 flop2\.q
*333 flop21\.notq
*334 flop21\.q
*335 flop22\.notq
*336 flop22\.q
*337 flop23\.q
*338 flop24\.q
*339 flop25\.clk
*340 flop26\.q
*341 flop27\.q
*342 flop28\.q
*343 flop3\.q
*344 flop30\.q
*345 flop31\.notq
*346 flop32\.q
*347 flop34\.q
*348 flop35\.q
*349 flop4\.q
*350 flop40\.q
*351 flop41\.q
*352 flop43\.q
*353 flop45\.q
*354 flop48\.q
*355 flop5\.q
*356 flop50\.q
*357 flop52\.q
*358 flop56\.q
*359 flop57\.q
*360 flop58\.notq
*361 flop59\.d
*362 flop59\.q
*363 flop6\.q
*364 flop60\.q
*365 flop61\.q
*366 flop62\.q
*367 flop63\.q
*368 flop64\.q
*369 flop65\.q
*370 flop66\.q
*371 flop67\.d
*372 flop69\.q
*373 flop71\.d
*374 flop71\.q
*375 flop72\.d
*376 flop72\.q
*377 flop73\.d
*378 flop73\.q
*379 flop74\.d
*380 flop74\.q
*381 flop75\.d
*382 flop75\.q
*383 flop76\.d
*384 flop76\.q
*385 flop77\.d
*386 flop77\.q
*387 flop78\.d
*388 flop78\.q
*389 flop79\.d
*390 flop79\.q
*391 flop80\.d
*392 flop82\.q
*393 flop87\.q
*394 flop89\.q
*395 net1
*396 net10
*397 net11
*398 net12
*399 net13
*400 net14
*401 net15
*402 net16
*403 net17
*404 net18
*405 net19
*406 net2
*407 net20
*408 net25
*409 net26
*410 net27
*411 net28
*412 net29
*413 net3
*414 net30
*415 net31
*416 net32
*417 net38
*418 net39
*419 net4
*420 net40
*421 net41
*422 net42
*423 net43
*424 net44
*425 net45
*426 net46
*427 net47
*428 net48
*429 net5
*430 net6
*431 net7
*432 net8
*433 net9
*434 or10\.out
*435 or11\.out
*436 or12\.out
*437 or13\.out
*438 or14\.out
*439 or15\.out
*440 or16\.out
*441 or17\.out
*442 or18\.out
*443 or19\.out
*444 or26\.out
*445 or9\.out
*446 FILLER_0_0_109
*447 FILLER_0_0_113
*448 FILLER_0_0_125
*449 FILLER_0_0_137
*450 FILLER_0_0_141
*451 FILLER_0_0_15
*452 FILLER_0_0_153
*453 FILLER_0_0_165
*454 FILLER_0_0_169
*455 FILLER_0_0_181
*456 FILLER_0_0_193
*457 FILLER_0_0_197
*458 FILLER_0_0_209
*459 FILLER_0_0_221
*460 FILLER_0_0_225
*461 FILLER_0_0_237
*462 FILLER_0_0_249
*463 FILLER_0_0_253
*464 FILLER_0_0_265
*465 FILLER_0_0_27
*466 FILLER_0_0_277
*467 FILLER_0_0_281
*468 FILLER_0_0_29
*469 FILLER_0_0_293
*470 FILLER_0_0_3
*471 FILLER_0_0_305
*472 FILLER_0_0_309
*473 FILLER_0_0_321
*474 FILLER_0_0_333
*475 FILLER_0_0_337
*476 FILLER_0_0_349
*477 FILLER_0_0_41
*478 FILLER_0_0_53
*479 FILLER_0_0_57
*480 FILLER_0_0_69
*481 FILLER_0_0_81
*482 FILLER_0_0_85
*483 FILLER_0_0_97
*484 FILLER_0_10_109
*485 FILLER_0_10_121
*486 FILLER_0_10_133
*487 FILLER_0_10_139
*488 FILLER_0_10_141
*489 FILLER_0_10_15
*490 FILLER_0_10_153
*491 FILLER_0_10_165
*492 FILLER_0_10_177
*493 FILLER_0_10_189
*494 FILLER_0_10_195
*495 FILLER_0_10_197
*496 FILLER_0_10_209
*497 FILLER_0_10_221
*498 FILLER_0_10_233
*499 FILLER_0_10_245
*500 FILLER_0_10_251
*501 FILLER_0_10_253
*502 FILLER_0_10_265
*503 FILLER_0_10_27
*504 FILLER_0_10_277
*505 FILLER_0_10_289
*506 FILLER_0_10_29
*507 FILLER_0_10_3
*508 FILLER_0_10_301
*509 FILLER_0_10_307
*510 FILLER_0_10_309
*511 FILLER_0_10_321
*512 FILLER_0_10_333
*513 FILLER_0_10_345
*514 FILLER_0_10_41
*515 FILLER_0_10_53
*516 FILLER_0_10_65
*517 FILLER_0_10_77
*518 FILLER_0_10_83
*519 FILLER_0_10_85
*520 FILLER_0_10_97
*521 FILLER_0_11_105
*522 FILLER_0_11_111
*523 FILLER_0_11_113
*524 FILLER_0_11_125
*525 FILLER_0_11_137
*526 FILLER_0_11_149
*527 FILLER_0_11_15
*528 FILLER_0_11_161
*529 FILLER_0_11_167
*530 FILLER_0_11_169
*531 FILLER_0_11_181
*532 FILLER_0_11_193
*533 FILLER_0_11_205
*534 FILLER_0_11_217
*535 FILLER_0_11_223
*536 FILLER_0_11_225
*537 FILLER_0_11_237
*538 FILLER_0_11_249
*539 FILLER_0_11_261
*540 FILLER_0_11_27
*541 FILLER_0_11_273
*542 FILLER_0_11_279
*543 FILLER_0_11_281
*544 FILLER_0_11_293
*545 FILLER_0_11_3
*546 FILLER_0_11_305
*547 FILLER_0_11_317
*548 FILLER_0_11_329
*549 FILLER_0_11_335
*550 FILLER_0_11_337
*551 FILLER_0_11_349
*552 FILLER_0_11_39
*553 FILLER_0_11_51
*554 FILLER_0_11_55
*555 FILLER_0_11_57
*556 FILLER_0_11_69
*557 FILLER_0_11_81
*558 FILLER_0_11_93
*559 FILLER_0_12_109
*560 FILLER_0_12_121
*561 FILLER_0_12_133
*562 FILLER_0_12_139
*563 FILLER_0_12_141
*564 FILLER_0_12_15
*565 FILLER_0_12_153
*566 FILLER_0_12_165
*567 FILLER_0_12_177
*568 FILLER_0_12_189
*569 FILLER_0_12_195
*570 FILLER_0_12_197
*571 FILLER_0_12_209
*572 FILLER_0_12_221
*573 FILLER_0_12_233
*574 FILLER_0_12_245
*575 FILLER_0_12_251
*576 FILLER_0_12_253
*577 FILLER_0_12_265
*578 FILLER_0_12_27
*579 FILLER_0_12_277
*580 FILLER_0_12_289
*581 FILLER_0_12_29
*582 FILLER_0_12_3
*583 FILLER_0_12_301
*584 FILLER_0_12_307
*585 FILLER_0_12_309
*586 FILLER_0_12_321
*587 FILLER_0_12_333
*588 FILLER_0_12_345
*589 FILLER_0_12_41
*590 FILLER_0_12_53
*591 FILLER_0_12_65
*592 FILLER_0_12_77
*593 FILLER_0_12_83
*594 FILLER_0_12_85
*595 FILLER_0_12_97
*596 FILLER_0_13_105
*597 FILLER_0_13_111
*598 FILLER_0_13_113
*599 FILLER_0_13_125
*600 FILLER_0_13_137
*601 FILLER_0_13_149
*602 FILLER_0_13_15
*603 FILLER_0_13_161
*604 FILLER_0_13_167
*605 FILLER_0_13_169
*606 FILLER_0_13_181
*607 FILLER_0_13_193
*608 FILLER_0_13_205
*609 FILLER_0_13_217
*610 FILLER_0_13_223
*611 FILLER_0_13_225
*612 FILLER_0_13_237
*613 FILLER_0_13_249
*614 FILLER_0_13_261
*615 FILLER_0_13_27
*616 FILLER_0_13_273
*617 FILLER_0_13_279
*618 FILLER_0_13_281
*619 FILLER_0_13_293
*620 FILLER_0_13_3
*621 FILLER_0_13_305
*622 FILLER_0_13_317
*623 FILLER_0_13_329
*624 FILLER_0_13_335
*625 FILLER_0_13_337
*626 FILLER_0_13_349
*627 FILLER_0_13_39
*628 FILLER_0_13_51
*629 FILLER_0_13_55
*630 FILLER_0_13_57
*631 FILLER_0_13_69
*632 FILLER_0_13_81
*633 FILLER_0_13_93
*634 FILLER_0_14_109
*635 FILLER_0_14_121
*636 FILLER_0_14_133
*637 FILLER_0_14_139
*638 FILLER_0_14_141
*639 FILLER_0_14_15
*640 FILLER_0_14_153
*641 FILLER_0_14_165
*642 FILLER_0_14_177
*643 FILLER_0_14_189
*644 FILLER_0_14_195
*645 FILLER_0_14_197
*646 FILLER_0_14_209
*647 FILLER_0_14_221
*648 FILLER_0_14_233
*649 FILLER_0_14_245
*650 FILLER_0_14_251
*651 FILLER_0_14_253
*652 FILLER_0_14_265
*653 FILLER_0_14_27
*654 FILLER_0_14_277
*655 FILLER_0_14_289
*656 FILLER_0_14_29
*657 FILLER_0_14_3
*658 FILLER_0_14_301
*659 FILLER_0_14_307
*660 FILLER_0_14_309
*661 FILLER_0_14_321
*662 FILLER_0_14_333
*663 FILLER_0_14_345
*664 FILLER_0_14_41
*665 FILLER_0_14_53
*666 FILLER_0_14_65
*667 FILLER_0_14_77
*668 FILLER_0_14_83
*669 FILLER_0_14_85
*670 FILLER_0_14_97
*671 FILLER_0_15_105
*672 FILLER_0_15_111
*673 FILLER_0_15_113
*674 FILLER_0_15_125
*675 FILLER_0_15_137
*676 FILLER_0_15_149
*677 FILLER_0_15_15
*678 FILLER_0_15_161
*679 FILLER_0_15_167
*680 FILLER_0_15_169
*681 FILLER_0_15_181
*682 FILLER_0_15_193
*683 FILLER_0_15_205
*684 FILLER_0_15_217
*685 FILLER_0_15_223
*686 FILLER_0_15_225
*687 FILLER_0_15_237
*688 FILLER_0_15_249
*689 FILLER_0_15_261
*690 FILLER_0_15_27
*691 FILLER_0_15_273
*692 FILLER_0_15_279
*693 FILLER_0_15_281
*694 FILLER_0_15_293
*695 FILLER_0_15_3
*696 FILLER_0_15_305
*697 FILLER_0_15_317
*698 FILLER_0_15_329
*699 FILLER_0_15_335
*700 FILLER_0_15_337
*701 FILLER_0_15_349
*702 FILLER_0_15_39
*703 FILLER_0_15_51
*704 FILLER_0_15_55
*705 FILLER_0_15_57
*706 FILLER_0_15_69
*707 FILLER_0_15_81
*708 FILLER_0_15_93
*709 FILLER_0_16_109
*710 FILLER_0_16_121
*711 FILLER_0_16_133
*712 FILLER_0_16_139
*713 FILLER_0_16_141
*714 FILLER_0_16_15
*715 FILLER_0_16_153
*716 FILLER_0_16_165
*717 FILLER_0_16_177
*718 FILLER_0_16_189
*719 FILLER_0_16_195
*720 FILLER_0_16_197
*721 FILLER_0_16_209
*722 FILLER_0_16_221
*723 FILLER_0_16_233
*724 FILLER_0_16_245
*725 FILLER_0_16_251
*726 FILLER_0_16_253
*727 FILLER_0_16_265
*728 FILLER_0_16_27
*729 FILLER_0_16_277
*730 FILLER_0_16_289
*731 FILLER_0_16_29
*732 FILLER_0_16_3
*733 FILLER_0_16_301
*734 FILLER_0_16_307
*735 FILLER_0_16_309
*736 FILLER_0_16_321
*737 FILLER_0_16_333
*738 FILLER_0_16_345
*739 FILLER_0_16_41
*740 FILLER_0_16_53
*741 FILLER_0_16_65
*742 FILLER_0_16_77
*743 FILLER_0_16_83
*744 FILLER_0_16_85
*745 FILLER_0_16_97
*746 FILLER_0_17_105
*747 FILLER_0_17_111
*748 FILLER_0_17_113
*749 FILLER_0_17_125
*750 FILLER_0_17_137
*751 FILLER_0_17_149
*752 FILLER_0_17_15
*753 FILLER_0_17_161
*754 FILLER_0_17_167
*755 FILLER_0_17_169
*756 FILLER_0_17_181
*757 FILLER_0_17_193
*758 FILLER_0_17_205
*759 FILLER_0_17_217
*760 FILLER_0_17_223
*761 FILLER_0_17_225
*762 FILLER_0_17_237
*763 FILLER_0_17_249
*764 FILLER_0_17_261
*765 FILLER_0_17_27
*766 FILLER_0_17_273
*767 FILLER_0_17_279
*768 FILLER_0_17_281
*769 FILLER_0_17_293
*770 FILLER_0_17_3
*771 FILLER_0_17_305
*772 FILLER_0_17_317
*773 FILLER_0_17_329
*774 FILLER_0_17_335
*775 FILLER_0_17_337
*776 FILLER_0_17_349
*777 FILLER_0_17_39
*778 FILLER_0_17_51
*779 FILLER_0_17_55
*780 FILLER_0_17_57
*781 FILLER_0_17_69
*782 FILLER_0_17_81
*783 FILLER_0_17_93
*784 FILLER_0_18_109
*785 FILLER_0_18_121
*786 FILLER_0_18_133
*787 FILLER_0_18_139
*788 FILLER_0_18_141
*789 FILLER_0_18_15
*790 FILLER_0_18_153
*791 FILLER_0_18_165
*792 FILLER_0_18_177
*793 FILLER_0_18_189
*794 FILLER_0_18_195
*795 FILLER_0_18_197
*796 FILLER_0_18_209
*797 FILLER_0_18_221
*798 FILLER_0_18_233
*799 FILLER_0_18_245
*800 FILLER_0_18_251
*801 FILLER_0_18_253
*802 FILLER_0_18_265
*803 FILLER_0_18_27
*804 FILLER_0_18_277
*805 FILLER_0_18_289
*806 FILLER_0_18_29
*807 FILLER_0_18_3
*808 FILLER_0_18_301
*809 FILLER_0_18_307
*810 FILLER_0_18_309
*811 FILLER_0_18_321
*812 FILLER_0_18_333
*813 FILLER_0_18_345
*814 FILLER_0_18_41
*815 FILLER_0_18_53
*816 FILLER_0_18_65
*817 FILLER_0_18_77
*818 FILLER_0_18_83
*819 FILLER_0_18_85
*820 FILLER_0_18_97
*821 FILLER_0_19_105
*822 FILLER_0_19_111
*823 FILLER_0_19_113
*824 FILLER_0_19_125
*825 FILLER_0_19_137
*826 FILLER_0_19_149
*827 FILLER_0_19_15
*828 FILLER_0_19_161
*829 FILLER_0_19_167
*830 FILLER_0_19_169
*831 FILLER_0_19_175
*832 FILLER_0_19_181
*833 FILLER_0_19_202
*834 FILLER_0_19_214
*835 FILLER_0_19_222
*836 FILLER_0_19_225
*837 FILLER_0_19_237
*838 FILLER_0_19_249
*839 FILLER_0_19_253
*840 FILLER_0_19_257
*841 FILLER_0_19_269
*842 FILLER_0_19_27
*843 FILLER_0_19_277
*844 FILLER_0_19_281
*845 FILLER_0_19_293
*846 FILLER_0_19_299
*847 FILLER_0_19_3
*848 FILLER_0_19_303
*849 FILLER_0_19_311
*850 FILLER_0_19_316
*851 FILLER_0_19_328
*852 FILLER_0_19_337
*853 FILLER_0_19_349
*854 FILLER_0_19_39
*855 FILLER_0_19_51
*856 FILLER_0_19_55
*857 FILLER_0_19_57
*858 FILLER_0_19_69
*859 FILLER_0_19_81
*860 FILLER_0_19_93
*861 FILLER_0_1_105
*862 FILLER_0_1_111
*863 FILLER_0_1_113
*864 FILLER_0_1_125
*865 FILLER_0_1_137
*866 FILLER_0_1_149
*867 FILLER_0_1_15
*868 FILLER_0_1_161
*869 FILLER_0_1_167
*870 FILLER_0_1_169
*871 FILLER_0_1_181
*872 FILLER_0_1_193
*873 FILLER_0_1_205
*874 FILLER_0_1_217
*875 FILLER_0_1_223
*876 FILLER_0_1_225
*877 FILLER_0_1_237
*878 FILLER_0_1_249
*879 FILLER_0_1_261
*880 FILLER_0_1_27
*881 FILLER_0_1_273
*882 FILLER_0_1_279
*883 FILLER_0_1_281
*884 FILLER_0_1_293
*885 FILLER_0_1_3
*886 FILLER_0_1_305
*887 FILLER_0_1_317
*888 FILLER_0_1_329
*889 FILLER_0_1_335
*890 FILLER_0_1_337
*891 FILLER_0_1_349
*892 FILLER_0_1_39
*893 FILLER_0_1_51
*894 FILLER_0_1_55
*895 FILLER_0_1_57
*896 FILLER_0_1_69
*897 FILLER_0_1_81
*898 FILLER_0_1_93
*899 FILLER_0_20_109
*900 FILLER_0_20_121
*901 FILLER_0_20_129
*902 FILLER_0_20_136
*903 FILLER_0_20_141
*904 FILLER_0_20_15
*905 FILLER_0_20_153
*906 FILLER_0_20_195
*907 FILLER_0_20_205
*908 FILLER_0_20_217
*909 FILLER_0_20_229
*910 FILLER_0_20_237
*911 FILLER_0_20_250
*912 FILLER_0_20_27
*913 FILLER_0_20_288
*914 FILLER_0_20_29
*915 FILLER_0_20_3
*916 FILLER_0_20_335
*917 FILLER_0_20_347
*918 FILLER_0_20_41
*919 FILLER_0_20_53
*920 FILLER_0_20_65
*921 FILLER_0_20_77
*922 FILLER_0_20_83
*923 FILLER_0_20_85
*924 FILLER_0_20_97
*925 FILLER_0_21_105
*926 FILLER_0_21_111
*927 FILLER_0_21_15
*928 FILLER_0_21_161
*929 FILLER_0_21_167
*930 FILLER_0_21_169
*931 FILLER_0_21_177
*932 FILLER_0_21_202
*933 FILLER_0_21_214
*934 FILLER_0_21_222
*935 FILLER_0_21_225
*936 FILLER_0_21_242
*937 FILLER_0_21_264
*938 FILLER_0_21_27
*939 FILLER_0_21_276
*940 FILLER_0_21_3
*941 FILLER_0_21_321
*942 FILLER_0_21_333
*943 FILLER_0_21_337
*944 FILLER_0_21_349
*945 FILLER_0_21_39
*946 FILLER_0_21_51
*947 FILLER_0_21_55
*948 FILLER_0_21_57
*949 FILLER_0_21_69
*950 FILLER_0_21_81
*951 FILLER_0_21_93
*952 FILLER_0_22_103
*953 FILLER_0_22_127
*954 FILLER_0_22_133
*955 FILLER_0_22_137
*956 FILLER_0_22_141
*957 FILLER_0_22_145
*958 FILLER_0_22_15
*959 FILLER_0_22_174
*960 FILLER_0_22_182
*961 FILLER_0_22_205
*962 FILLER_0_22_217
*963 FILLER_0_22_225
*964 FILLER_0_22_251
*965 FILLER_0_22_27
*966 FILLER_0_22_281
*967 FILLER_0_22_289
*968 FILLER_0_22_29
*969 FILLER_0_22_3
*970 FILLER_0_22_300
*971 FILLER_0_22_309
*972 FILLER_0_22_338
*973 FILLER_0_22_350
*974 FILLER_0_22_41
*975 FILLER_0_22_53
*976 FILLER_0_22_65
*977 FILLER_0_22_77
*978 FILLER_0_22_83
*979 FILLER_0_22_85
*980 FILLER_0_22_97
*981 FILLER_0_23_101
*982 FILLER_0_23_136
*983 FILLER_0_23_15
*984 FILLER_0_23_160
*985 FILLER_0_23_169
*986 FILLER_0_23_181
*987 FILLER_0_23_185
*988 FILLER_0_23_189
*989 FILLER_0_23_200
*990 FILLER_0_23_210
*991 FILLER_0_23_222
*992 FILLER_0_23_248
*993 FILLER_0_23_27
*994 FILLER_0_23_270
*995 FILLER_0_23_278
*996 FILLER_0_23_281
*997 FILLER_0_23_293
*998 FILLER_0_23_3
*999 FILLER_0_23_305
*1000 FILLER_0_23_317
*1001 FILLER_0_23_334
*1002 FILLER_0_23_343
*1003 FILLER_0_23_39
*1004 FILLER_0_23_51
*1005 FILLER_0_23_55
*1006 FILLER_0_23_57
*1007 FILLER_0_23_69
*1008 FILLER_0_23_81
*1009 FILLER_0_23_93
*1010 FILLER_0_24_105
*1011 FILLER_0_24_126
*1012 FILLER_0_24_138
*1013 FILLER_0_24_141
*1014 FILLER_0_24_15
*1015 FILLER_0_24_152
*1016 FILLER_0_24_156
*1017 FILLER_0_24_165
*1018 FILLER_0_24_173
*1019 FILLER_0_24_213
*1020 FILLER_0_24_225
*1021 FILLER_0_24_232
*1022 FILLER_0_24_244
*1023 FILLER_0_24_250
*1024 FILLER_0_24_253
*1025 FILLER_0_24_262
*1026 FILLER_0_24_269
*1027 FILLER_0_24_27
*1028 FILLER_0_24_273
*1029 FILLER_0_24_29
*1030 FILLER_0_24_3
*1031 FILLER_0_24_337
*1032 FILLER_0_24_349
*1033 FILLER_0_24_41
*1034 FILLER_0_24_53
*1035 FILLER_0_24_65
*1036 FILLER_0_24_77
*1037 FILLER_0_24_83
*1038 FILLER_0_24_85
*1039 FILLER_0_24_97
*1040 FILLER_0_25_108
*1041 FILLER_0_25_113
*1042 FILLER_0_25_125
*1043 FILLER_0_25_133
*1044 FILLER_0_25_15
*1045 FILLER_0_25_166
*1046 FILLER_0_25_169
*1047 FILLER_0_25_175
*1048 FILLER_0_25_187
*1049 FILLER_0_25_213
*1050 FILLER_0_25_219
*1051 FILLER_0_25_229
*1052 FILLER_0_25_27
*1053 FILLER_0_25_274
*1054 FILLER_0_25_279
*1055 FILLER_0_25_284
*1056 FILLER_0_25_292
*1057 FILLER_0_25_3
*1058 FILLER_0_25_311
*1059 FILLER_0_25_318
*1060 FILLER_0_25_334
*1061 FILLER_0_25_337
*1062 FILLER_0_25_349
*1063 FILLER_0_25_39
*1064 FILLER_0_25_51
*1065 FILLER_0_25_75
*1066 FILLER_0_25_83
*1067 FILLER_0_25_91
*1068 FILLER_0_25_95
*1069 FILLER_0_26_115
*1070 FILLER_0_26_127
*1071 FILLER_0_26_133
*1072 FILLER_0_26_141
*1073 FILLER_0_26_15
*1074 FILLER_0_26_171
*1075 FILLER_0_26_195
*1076 FILLER_0_26_197
*1077 FILLER_0_26_209
*1078 FILLER_0_26_218
*1079 FILLER_0_26_222
*1080 FILLER_0_26_235
*1081 FILLER_0_26_247
*1082 FILLER_0_26_251
*1083 FILLER_0_26_253
*1084 FILLER_0_26_258
*1085 FILLER_0_26_266
*1086 FILLER_0_26_27
*1087 FILLER_0_26_29
*1088 FILLER_0_26_290
*1089 FILLER_0_26_296
*1090 FILLER_0_26_3
*1091 FILLER_0_26_303
*1092 FILLER_0_26_315
*1093 FILLER_0_26_344
*1094 FILLER_0_26_350
*1095 FILLER_0_26_41
*1096 FILLER_0_26_79
*1097 FILLER_0_26_83
*1098 FILLER_0_26_85
*1099 FILLER_0_27_119
*1100 FILLER_0_27_127
*1101 FILLER_0_27_131
*1102 FILLER_0_27_139
*1103 FILLER_0_27_15
*1104 FILLER_0_27_162
*1105 FILLER_0_27_169
*1106 FILLER_0_27_181
*1107 FILLER_0_27_207
*1108 FILLER_0_27_215
*1109 FILLER_0_27_233
*1110 FILLER_0_27_252
*1111 FILLER_0_27_260
*1112 FILLER_0_27_264
*1113 FILLER_0_27_27
*1114 FILLER_0_27_278
*1115 FILLER_0_27_284
*1116 FILLER_0_27_288
*1117 FILLER_0_27_3
*1118 FILLER_0_27_337
*1119 FILLER_0_27_349
*1120 FILLER_0_27_39
*1121 FILLER_0_27_51
*1122 FILLER_0_27_55
*1123 FILLER_0_27_78
*1124 FILLER_0_27_86
*1125 FILLER_0_28_111
*1126 FILLER_0_28_123
*1127 FILLER_0_28_133
*1128 FILLER_0_28_15
*1129 FILLER_0_28_170
*1130 FILLER_0_28_240
*1131 FILLER_0_28_250
*1132 FILLER_0_28_253
*1133 FILLER_0_28_265
*1134 FILLER_0_28_27
*1135 FILLER_0_28_29
*1136 FILLER_0_28_299
*1137 FILLER_0_28_3
*1138 FILLER_0_28_307
*1139 FILLER_0_28_309
*1140 FILLER_0_28_314
*1141 FILLER_0_28_336
*1142 FILLER_0_28_348
*1143 FILLER_0_28_41
*1144 FILLER_0_28_76
*1145 FILLER_0_29_101
*1146 FILLER_0_29_107
*1147 FILLER_0_29_111
*1148 FILLER_0_29_113
*1149 FILLER_0_29_125
*1150 FILLER_0_29_146
*1151 FILLER_0_29_15
*1152 FILLER_0_29_160
*1153 FILLER_0_29_178
*1154 FILLER_0_29_190
*1155 FILLER_0_29_194
*1156 FILLER_0_29_207
*1157 FILLER_0_29_213
*1158 FILLER_0_29_222
*1159 FILLER_0_29_228
*1160 FILLER_0_29_240
*1161 FILLER_0_29_249
*1162 FILLER_0_29_27
*1163 FILLER_0_29_277
*1164 FILLER_0_29_281
*1165 FILLER_0_29_289
*1166 FILLER_0_29_3
*1167 FILLER_0_29_307
*1168 FILLER_0_29_319
*1169 FILLER_0_29_331
*1170 FILLER_0_29_335
*1171 FILLER_0_29_337
*1172 FILLER_0_29_349
*1173 FILLER_0_29_39
*1174 FILLER_0_29_51
*1175 FILLER_0_29_55
*1176 FILLER_0_29_69
*1177 FILLER_0_29_81
*1178 FILLER_0_29_93
*1179 FILLER_0_2_109
*1180 FILLER_0_2_121
*1181 FILLER_0_2_133
*1182 FILLER_0_2_139
*1183 FILLER_0_2_141
*1184 FILLER_0_2_15
*1185 FILLER_0_2_153
*1186 FILLER_0_2_165
*1187 FILLER_0_2_177
*1188 FILLER_0_2_189
*1189 FILLER_0_2_195
*1190 FILLER_0_2_197
*1191 FILLER_0_2_209
*1192 FILLER_0_2_221
*1193 FILLER_0_2_233
*1194 FILLER_0_2_245
*1195 FILLER_0_2_251
*1196 FILLER_0_2_253
*1197 FILLER_0_2_265
*1198 FILLER_0_2_27
*1199 FILLER_0_2_277
*1200 FILLER_0_2_289
*1201 FILLER_0_2_29
*1202 FILLER_0_2_3
*1203 FILLER_0_2_301
*1204 FILLER_0_2_307
*1205 FILLER_0_2_309
*1206 FILLER_0_2_321
*1207 FILLER_0_2_333
*1208 FILLER_0_2_345
*1209 FILLER_0_2_41
*1210 FILLER_0_2_53
*1211 FILLER_0_2_65
*1212 FILLER_0_2_77
*1213 FILLER_0_2_83
*1214 FILLER_0_2_85
*1215 FILLER_0_2_97
*1216 FILLER_0_30_113
*1217 FILLER_0_30_125
*1218 FILLER_0_30_137
*1219 FILLER_0_30_141
*1220 FILLER_0_30_15
*1221 FILLER_0_30_153
*1222 FILLER_0_30_174
*1223 FILLER_0_30_186
*1224 FILLER_0_30_194
*1225 FILLER_0_30_203
*1226 FILLER_0_30_242
*1227 FILLER_0_30_248
*1228 FILLER_0_30_253
*1229 FILLER_0_30_264
*1230 FILLER_0_30_269
*1231 FILLER_0_30_27
*1232 FILLER_0_30_29
*1233 FILLER_0_30_297
*1234 FILLER_0_30_3
*1235 FILLER_0_30_301
*1236 FILLER_0_30_306
*1237 FILLER_0_30_317
*1238 FILLER_0_30_341
*1239 FILLER_0_30_349
*1240 FILLER_0_30_41
*1241 FILLER_0_30_71
*1242 FILLER_0_30_82
*1243 FILLER_0_30_89
*1244 FILLER_0_31_109
*1245 FILLER_0_31_122
*1246 FILLER_0_31_15
*1247 FILLER_0_31_153
*1248 FILLER_0_31_157
*1249 FILLER_0_31_162
*1250 FILLER_0_31_179
*1251 FILLER_0_31_188
*1252 FILLER_0_31_212
*1253 FILLER_0_31_222
*1254 FILLER_0_31_225
*1255 FILLER_0_31_27
*1256 FILLER_0_31_270
*1257 FILLER_0_31_278
*1258 FILLER_0_31_284
*1259 FILLER_0_31_289
*1260 FILLER_0_31_295
*1261 FILLER_0_31_3
*1262 FILLER_0_31_335
*1263 FILLER_0_31_347
*1264 FILLER_0_31_35
*1265 FILLER_0_32_101
*1266 FILLER_0_32_124
*1267 FILLER_0_32_132
*1268 FILLER_0_32_15
*1269 FILLER_0_32_150
*1270 FILLER_0_32_218
*1271 FILLER_0_32_251
*1272 FILLER_0_32_27
*1273 FILLER_0_32_276
*1274 FILLER_0_32_284
*1275 FILLER_0_32_29
*1276 FILLER_0_32_3
*1277 FILLER_0_32_302
*1278 FILLER_0_32_325
*1279 FILLER_0_32_345
*1280 FILLER_0_32_41
*1281 FILLER_0_32_75
*1282 FILLER_0_32_83
*1283 FILLER_0_32_88
*1284 FILLER_0_33_102
*1285 FILLER_0_33_110
*1286 FILLER_0_33_113
*1287 FILLER_0_33_125
*1288 FILLER_0_33_129
*1289 FILLER_0_33_135
*1290 FILLER_0_33_139
*1291 FILLER_0_33_15
*1292 FILLER_0_33_155
*1293 FILLER_0_33_159
*1294 FILLER_0_33_163
*1295 FILLER_0_33_167
*1296 FILLER_0_33_178
*1297 FILLER_0_33_183
*1298 FILLER_0_33_191
*1299 FILLER_0_33_245
*1300 FILLER_0_33_27
*1301 FILLER_0_33_272
*1302 FILLER_0_33_281
*1303 FILLER_0_33_293
*1304 FILLER_0_33_3
*1305 FILLER_0_33_301
*1306 FILLER_0_33_310
*1307 FILLER_0_33_318
*1308 FILLER_0_33_344
*1309 FILLER_0_33_350
*1310 FILLER_0_33_39
*1311 FILLER_0_33_51
*1312 FILLER_0_33_55
*1313 FILLER_0_33_57
*1314 FILLER_0_33_73
*1315 FILLER_0_33_80
*1316 FILLER_0_33_90
*1317 FILLER_0_34_108
*1318 FILLER_0_34_116
*1319 FILLER_0_34_128
*1320 FILLER_0_34_134
*1321 FILLER_0_34_141
*1322 FILLER_0_34_15
*1323 FILLER_0_34_151
*1324 FILLER_0_34_163
*1325 FILLER_0_34_185
*1326 FILLER_0_34_194
*1327 FILLER_0_34_197
*1328 FILLER_0_34_204
*1329 FILLER_0_34_211
*1330 FILLER_0_34_27
*1331 FILLER_0_34_279
*1332 FILLER_0_34_29
*1333 FILLER_0_34_296
*1334 FILLER_0_34_3
*1335 FILLER_0_34_309
*1336 FILLER_0_34_321
*1337 FILLER_0_34_329
*1338 FILLER_0_34_346
*1339 FILLER_0_34_350
*1340 FILLER_0_34_41
*1341 FILLER_0_34_49
*1342 FILLER_0_34_70
*1343 FILLER_0_34_79
*1344 FILLER_0_34_83
*1345 FILLER_0_34_85
*1346 FILLER_0_34_89
*1347 FILLER_0_35_121
*1348 FILLER_0_35_128
*1349 FILLER_0_35_134
*1350 FILLER_0_35_15
*1351 FILLER_0_35_150
*1352 FILLER_0_35_154
*1353 FILLER_0_35_158
*1354 FILLER_0_35_162
*1355 FILLER_0_35_166
*1356 FILLER_0_35_180
*1357 FILLER_0_35_223
*1358 FILLER_0_35_234
*1359 FILLER_0_35_264
*1360 FILLER_0_35_27
*1361 FILLER_0_35_272
*1362 FILLER_0_35_281
*1363 FILLER_0_35_292
*1364 FILLER_0_35_3
*1365 FILLER_0_35_316
*1366 FILLER_0_35_328
*1367 FILLER_0_35_337
*1368 FILLER_0_35_349
*1369 FILLER_0_35_39
*1370 FILLER_0_35_51
*1371 FILLER_0_35_55
*1372 FILLER_0_35_57
*1373 FILLER_0_35_69
*1374 FILLER_0_36_119
*1375 FILLER_0_36_128
*1376 FILLER_0_36_135
*1377 FILLER_0_36_139
*1378 FILLER_0_36_141
*1379 FILLER_0_36_15
*1380 FILLER_0_36_187
*1381 FILLER_0_36_197
*1382 FILLER_0_36_219
*1383 FILLER_0_36_243
*1384 FILLER_0_36_251
*1385 FILLER_0_36_261
*1386 FILLER_0_36_269
*1387 FILLER_0_36_27
*1388 FILLER_0_36_29
*1389 FILLER_0_36_298
*1390 FILLER_0_36_3
*1391 FILLER_0_36_302
*1392 FILLER_0_36_306
*1393 FILLER_0_36_313
*1394 FILLER_0_36_343
*1395 FILLER_0_36_41
*1396 FILLER_0_36_53
*1397 FILLER_0_36_57
*1398 FILLER_0_36_94
*1399 FILLER_0_37_113
*1400 FILLER_0_37_118
*1401 FILLER_0_37_130
*1402 FILLER_0_37_145
*1403 FILLER_0_37_15
*1404 FILLER_0_37_169
*1405 FILLER_0_37_177
*1406 FILLER_0_37_207
*1407 FILLER_0_37_211
*1408 FILLER_0_37_246
*1409 FILLER_0_37_27
*1410 FILLER_0_37_270
*1411 FILLER_0_37_274
*1412 FILLER_0_37_278
*1413 FILLER_0_37_291
*1414 FILLER_0_37_3
*1415 FILLER_0_37_302
*1416 FILLER_0_37_343
*1417 FILLER_0_37_39
*1418 FILLER_0_37_51
*1419 FILLER_0_37_55
*1420 FILLER_0_37_63
*1421 FILLER_0_37_67
*1422 FILLER_0_37_77
*1423 FILLER_0_37_82
*1424 FILLER_0_38_109
*1425 FILLER_0_38_113
*1426 FILLER_0_38_118
*1427 FILLER_0_38_122
*1428 FILLER_0_38_126
*1429 FILLER_0_38_130
*1430 FILLER_0_38_134
*1431 FILLER_0_38_14
*1432 FILLER_0_38_141
*1433 FILLER_0_38_167
*1434 FILLER_0_38_175
*1435 FILLER_0_38_18
*1436 FILLER_0_38_187
*1437 FILLER_0_38_195
*1438 FILLER_0_38_197
*1439 FILLER_0_38_209
*1440 FILLER_0_38_217
*1441 FILLER_0_38_22
*1442 FILLER_0_38_248
*1443 FILLER_0_38_257
*1444 FILLER_0_38_262
*1445 FILLER_0_38_274
*1446 FILLER_0_38_281
*1447 FILLER_0_38_293
*1448 FILLER_0_38_3
*1449 FILLER_0_38_301
*1450 FILLER_0_38_309
*1451 FILLER_0_38_32
*1452 FILLER_0_38_343
*1453 FILLER_0_38_38
*1454 FILLER_0_38_42
*1455 FILLER_0_38_46
*1456 FILLER_0_38_54
*1457 FILLER_0_38_57
*1458 FILLER_0_38_62
*1459 FILLER_0_38_74
*1460 FILLER_0_38_82
*1461 FILLER_0_38_85
*1462 FILLER_0_38_93
*1463 FILLER_0_38_99
*1464 FILLER_0_3_105
*1465 FILLER_0_3_111
*1466 FILLER_0_3_113
*1467 FILLER_0_3_125
*1468 FILLER_0_3_137
*1469 FILLER_0_3_149
*1470 FILLER_0_3_15
*1471 FILLER_0_3_161
*1472 FILLER_0_3_167
*1473 FILLER_0_3_169
*1474 FILLER_0_3_181
*1475 FILLER_0_3_193
*1476 FILLER_0_3_205
*1477 FILLER_0_3_217
*1478 FILLER_0_3_223
*1479 FILLER_0_3_225
*1480 FILLER_0_3_237
*1481 FILLER_0_3_249
*1482 FILLER_0_3_261
*1483 FILLER_0_3_27
*1484 FILLER_0_3_273
*1485 FILLER_0_3_279
*1486 FILLER_0_3_281
*1487 FILLER_0_3_293
*1488 FILLER_0_3_3
*1489 FILLER_0_3_305
*1490 FILLER_0_3_317
*1491 FILLER_0_3_329
*1492 FILLER_0_3_335
*1493 FILLER_0_3_337
*1494 FILLER_0_3_349
*1495 FILLER_0_3_39
*1496 FILLER_0_3_51
*1497 FILLER_0_3_55
*1498 FILLER_0_3_57
*1499 FILLER_0_3_69
*1500 FILLER_0_3_81
*1501 FILLER_0_3_93
*1502 FILLER_0_4_109
*1503 FILLER_0_4_121
*1504 FILLER_0_4_133
*1505 FILLER_0_4_139
*1506 FILLER_0_4_141
*1507 FILLER_0_4_15
*1508 FILLER_0_4_153
*1509 FILLER_0_4_165
*1510 FILLER_0_4_177
*1511 FILLER_0_4_189
*1512 FILLER_0_4_195
*1513 FILLER_0_4_197
*1514 FILLER_0_4_209
*1515 FILLER_0_4_221
*1516 FILLER_0_4_233
*1517 FILLER_0_4_245
*1518 FILLER_0_4_251
*1519 FILLER_0_4_253
*1520 FILLER_0_4_265
*1521 FILLER_0_4_27
*1522 FILLER_0_4_277
*1523 FILLER_0_4_289
*1524 FILLER_0_4_29
*1525 FILLER_0_4_3
*1526 FILLER_0_4_301
*1527 FILLER_0_4_307
*1528 FILLER_0_4_309
*1529 FILLER_0_4_321
*1530 FILLER_0_4_333
*1531 FILLER_0_4_345
*1532 FILLER_0_4_41
*1533 FILLER_0_4_53
*1534 FILLER_0_4_65
*1535 FILLER_0_4_77
*1536 FILLER_0_4_83
*1537 FILLER_0_4_85
*1538 FILLER_0_4_97
*1539 FILLER_0_5_105
*1540 FILLER_0_5_111
*1541 FILLER_0_5_113
*1542 FILLER_0_5_125
*1543 FILLER_0_5_137
*1544 FILLER_0_5_149
*1545 FILLER_0_5_15
*1546 FILLER_0_5_161
*1547 FILLER_0_5_167
*1548 FILLER_0_5_169
*1549 FILLER_0_5_181
*1550 FILLER_0_5_193
*1551 FILLER_0_5_205
*1552 FILLER_0_5_217
*1553 FILLER_0_5_223
*1554 FILLER_0_5_225
*1555 FILLER_0_5_237
*1556 FILLER_0_5_249
*1557 FILLER_0_5_261
*1558 FILLER_0_5_27
*1559 FILLER_0_5_273
*1560 FILLER_0_5_279
*1561 FILLER_0_5_281
*1562 FILLER_0_5_293
*1563 FILLER_0_5_3
*1564 FILLER_0_5_305
*1565 FILLER_0_5_317
*1566 FILLER_0_5_329
*1567 FILLER_0_5_335
*1568 FILLER_0_5_337
*1569 FILLER_0_5_349
*1570 FILLER_0_5_39
*1571 FILLER_0_5_51
*1572 FILLER_0_5_55
*1573 FILLER_0_5_57
*1574 FILLER_0_5_69
*1575 FILLER_0_5_81
*1576 FILLER_0_5_93
*1577 FILLER_0_6_109
*1578 FILLER_0_6_121
*1579 FILLER_0_6_133
*1580 FILLER_0_6_139
*1581 FILLER_0_6_141
*1582 FILLER_0_6_15
*1583 FILLER_0_6_153
*1584 FILLER_0_6_165
*1585 FILLER_0_6_177
*1586 FILLER_0_6_189
*1587 FILLER_0_6_195
*1588 FILLER_0_6_197
*1589 FILLER_0_6_209
*1590 FILLER_0_6_221
*1591 FILLER_0_6_233
*1592 FILLER_0_6_245
*1593 FILLER_0_6_251
*1594 FILLER_0_6_253
*1595 FILLER_0_6_265