*SPEF "ieee 1481-1999"
*DESIGN "tt_um_tiny_processor"
*DATE "11:11:11 Fri 11 11, 1111"
*VENDOR "OpenRCX"
*PROGRAM "Parallel Extraction"
*VERSION "1.0"
*DESIGN_FLOW "NAME_SCOPE LOCAL" "PIN_CAP NONE"
*DIVIDER /
*DELIMITER :
*BUS_DELIMITER []
*T_UNIT 1 NS
*C_UNIT 1 PF
*R_UNIT 1 OHM
*L_UNIT 1 HENRY

*NAME_MAP
*3 clk
*4 ena
*5 rst_n
*6 ui_in[0]
*7 ui_in[1]
*8 ui_in[2]
*9 ui_in[3]
*10 ui_in[4]
*11 ui_in[5]
*12 ui_in[6]
*13 ui_in[7]
*14 uio_in[0]
*15 uio_in[1]
*16 uio_in[2]
*17 uio_in[3]
*18 uio_in[4]
*19 uio_in[5]
*20 uio_in[6]
*21 uio_in[7]
*22 net13
*23 net14
*24 net19
*25 net20
*26 net15
*27 net21
*28 net22
*29 net23
*30 net16
*31 net17
*32 uio_out[2]
*33 uio_out[3]
*34 net18
*35 uio_out[5]
*36 uio_out[6]
*37 uio_out[7]
*38 uo_out[0]
*39 uo_out[1]
*40 uo_out[2]
*41 uo_out[3]
*42 uo_out[4]
*43 uo_out[5]
*44 uo_out[6]
*45 uo_out[7]
*46 _0000_
*47 _0001_
*48 _0002_
*49 _0003_
*50 _0005_
*51 _0006_
*52 _0007_
*53 _0008_
*54 _0009_
*55 _0010_
*56 _0011_
*57 _0012_
*58 _0013_
*59 _0014_
*60 _0015_
*61 _0016_
*62 _0017_
*63 _0018_
*64 _0019_
*65 _0020_
*66 _0021_
*67 _0022_
*68 _0023_
*69 _0024_
*70 _0025_
*71 _0026_
*72 _0027_
*73 _0028_
*74 _0029_
*75 _0030_
*76 _0031_
*77 _0032_
*78 _0033_
*79 _0034_
*80 _0035_
*81 _0036_
*82 _0037_
*83 _0038_
*84 _0039_
*85 _0040_
*86 _0041_
*87 _0042_
*88 _0043_
*89 _0044_
*90 _0045_
*91 _0046_
*92 _0047_
*93 _0048_
*94 _0049_
*95 _0050_
*96 _0051_
*97 _0052_
*98 _0053_
*99 _0054_
*100 _0055_
*101 _0056_
*102 _0057_
*103 _0058_
*104 _0059_
*105 _0060_
*106 _0061_
*107 _0062_
*108 _0063_
*109 _0064_
*110 _0065_
*111 _0066_
*112 _0067_
*113 _0068_
*114 _0069_
*115 _0070_
*116 _0071_
*117 _0072_
*118 _0073_
*119 _0074_
*120 _0075_
*121 _0076_
*122 _0077_
*123 _0078_
*124 _0079_
*125 _0080_
*126 _0081_
*127 _0082_
*128 _0083_
*129 _0084_
*130 _0085_
*131 _0086_
*132 _0087_
*133 _0088_
*134 _0089_
*135 _0090_
*136 _0091_
*137 _0092_
*138 _0093_
*139 _0094_
*140 _0095_
*141 _0096_
*142 _0097_
*143 _0098_
*144 _0099_
*145 _0100_
*146 _0101_
*147 _0102_
*148 _0103_
*149 _0104_
*150 _0105_
*151 _0106_
*152 _0107_
*153 _0108_
*154 _0109_
*155 _0110_
*156 _0111_
*157 _0112_
*158 _0113_
*159 _0114_
*160 _0115_
*161 _0116_
*162 _0117_
*163 _0118_
*164 _0119_
*165 _0120_
*166 _0121_
*167 _0122_
*168 _0123_
*169 _0124_
*170 _0125_
*171 _0126_
*172 _0127_
*173 _0128_
*174 _0129_
*175 _0130_
*176 _0131_
*177 _0132_
*178 _0133_
*179 _0134_
*180 _0135_
*181 _0136_
*182 _0137_
*183 _0138_
*184 _0139_
*185 _0140_
*186 _0141_
*187 _0142_
*188 _0143_
*189 _0144_
*190 _0145_
*191 _0146_
*192 _0147_
*193 _0148_
*194 _0149_
*195 _0150_
*196 _0151_
*197 _0152_
*198 _0153_
*199 _0154_
*200 _0155_
*201 _0156_
*202 _0157_
*203 _0158_
*204 _0159_
*205 _0160_
*206 _0161_
*207 _0162_
*208 _0163_
*209 _0164_
*210 _0165_
*211 _0166_
*212 _0167_
*213 _0168_
*214 _0169_
*215 _0170_
*216 _0171_
*217 _0172_
*218 _0173_
*219 _0174_
*220 _0175_
*221 _0176_
*222 _0177_
*223 _0178_
*224 _0179_
*225 _0180_
*226 _0181_
*227 _0182_
*228 _0183_
*229 _0184_
*230 _0185_
*231 _0186_
*232 _0187_
*233 _0188_
*234 _0189_
*235 _0190_
*236 _0191_
*237 _0192_
*238 _0193_
*239 _0194_
*240 _0195_
*241 _0196_
*242 _0197_
*243 _0198_
*244 _0199_
*245 _0200_
*246 _0201_
*247 _0202_
*248 _0203_
*249 _0204_
*250 _0205_
*251 _0206_
*252 _0207_
*253 _0208_
*254 _0209_
*255 _0210_
*256 _0211_
*257 _0212_
*258 _0213_
*259 _0214_
*260 _0215_
*261 _0216_
*262 _0217_
*263 _0218_
*264 _0219_
*265 _0220_
*266 _0221_
*267 _0222_
*268 _0223_
*269 _0224_
*270 _0225_
*271 _0226_
*272 _0227_
*273 _0228_
*274 _0229_
*275 _0230_
*276 _0231_
*277 _0232_
*278 _0233_
*279 _0234_
*280 _0235_
*281 _0236_
*282 _0237_
*283 _0238_
*284 _0239_
*285 _0240_
*286 _0241_
*287 _0242_
*288 _0243_
*289 _0244_
*290 _0245_
*291 _0246_
*292 _0247_
*293 _0248_
*294 _0249_
*295 _0250_
*296 _0251_
*297 _0252_
*298 _0253_
*299 _0254_
*300 _0255_
*301 _0256_
*302 _0257_
*303 _0258_
*304 _0259_
*305 _0260_
*306 _0261_
*307 _0262_
*308 _0263_
*309 _0264_
*310 _0265_
*311 _0266_
*312 _0267_
*313 _0268_
*314 _0269_
*315 _0270_
*316 _0271_
*317 _0272_
*318 _0273_
*319 _0274_
*320 _0275_
*321 _0276_
*322 _0277_
*323 _0278_
*324 _0279_
*325 _0280_
*326 _0281_
*327 _0282_
*328 _0283_
*329 _0284_
*330 _0285_
*331 _0286_
*332 _0287_
*333 _0288_
*334 _0289_
*335 _0290_
*336 _0291_
*337 _0292_
*338 _0293_
*339 _0294_
*340 _0295_
*341 _0296_
*342 _0297_
*343 _0298_
*344 _0299_
*345 _0300_
*346 _0301_
*347 _0302_
*348 _0303_
*349 _0304_
*350 _0305_
*351 _0306_
*352 _0307_
*353 _0308_
*354 _0309_
*355 _0310_
*356 _0311_
*357 _0312_
*358 _0313_
*359 _0314_
*360 _0315_
*361 _0316_
*362 _0317_
*363 _0318_
*364 _0319_
*365 _0320_
*366 _0321_
*367 _0322_
*368 _0323_
*369 _0324_
*370 _0325_
*371 _0326_
*372 _0327_
*373 _0328_
*374 _0329_
*375 _0330_
*376 _0331_
*377 _0332_
*378 _0333_
*379 _0334_
*380 _0335_
*381 _0336_
*382 _0337_
*383 _0338_
*384 _0339_
*385 _0340_
*386 _0341_
*387 _0342_
*388 _0343_
*389 _0344_
*390 _0345_
*391 _0346_
*392 _0347_
*393 _0348_
*394 _0349_
*395 _0350_
*396 _0351_
*397 _0352_
*398 _0353_
*399 _0354_
*400 _0355_
*401 _0356_
*402 _0357_
*403 _0358_
*404 _0359_
*405 _0360_
*406 _0361_
*407 _0362_
*408 _0363_
*409 _0364_
*410 _0365_
*411 _0366_
*412 _0367_
*413 _0368_
*414 _0369_
*415 _0370_
*416 _0371_
*417 _0372_
*418 _0373_
*419 _0374_
*420 _0375_
*421 _0376_
*422 _0377_
*423 _0378_
*424 _0379_
*425 _0380_
*426 _0381_
*427 _0382_
*428 _0383_
*429 _0384_
*430 _0385_
*431 _0386_
*432 _0387_
*433 _0388_
*434 _0389_
*435 _0390_
*436 _0391_
*437 _0392_
*438 _0393_
*439 _0394_
*440 _0395_
*441 _0396_
*442 _0397_
*443 _0398_
*444 _0399_
*445 _0400_
*446 _0401_
*447 _0402_
*448 _0403_
*449 _0404_
*450 _0405_
*451 _0406_
*452 _0407_
*453 _0408_
*454 _0409_
*455 _0410_
*456 _0411_
*457 _0412_
*458 _0413_
*459 _0414_
*460 _0415_
*461 _0416_
*462 _0417_
*463 _0418_
*464 _0419_
*465 _0420_
*466 _0421_
*467 _0422_
*468 _0423_
*469 _0424_
*470 _0425_
*471 _0426_
*472 _0427_
*473 _0428_
*474 _0429_
*475 _0430_
*476 _0431_
*477 _0432_
*478 _0433_
*479 _0434_
*480 _0435_
*481 _0436_
*482 _0437_
*483 _0438_
*484 _0439_
*485 _0440_
*486 _0441_
*487 _0442_
*488 _0443_
*489 _0444_
*490 _0445_
*491 _0446_
*492 _0447_
*493 _0448_
*494 _0449_
*495 _0450_
*496 _0451_
*497 _0452_
*498 _0453_
*499 _0454_
*500 _0455_
*501 _0456_
*502 _0457_
*503 _0458_
*504 _0459_
*505 _0460_
*506 _0461_
*507 _0462_
*508 _0463_
*509 _0464_
*510 _0465_
*511 _0466_
*512 _0467_
*513 _0468_
*514 _0469_
*515 _0470_
*516 _0471_
*517 _0472_
*518 _0473_
*519 _0474_
*520 _0475_
*521 _0476_
*522 _0477_
*523 _0478_
*524 _0479_
*525 _0480_
*526 _0481_
*527 _0482_
*528 _0483_
*529 _0484_
*530 _0485_
*531 _0486_
*532 _0487_
*533 _0488_
*534 _0489_
*535 _0490_
*536 _0491_
*537 _0492_
*538 _0493_
*539 _0494_
*540 _0495_
*541 _0496_
*542 _0497_
*543 _0498_
*544 _0499_
*545 _0500_
*546 _0501_
*547 _0502_
*548 _0503_
*549 _0504_
*550 _0505_
*551 _0506_
*552 _0507_
*553 _0508_
*554 _0509_
*555 _0510_
*556 _0511_
*557 _0512_
*558 _0513_
*559 _0514_
*560 _0515_
*561 _0516_
*562 _0517_
*563 _0518_
*564 _0519_
*565 _0520_
*566 _0521_
*567 _0522_
*568 _0523_
*569 _0524_
*570 _0525_
*571 _0526_
*572 _0527_
*573 _0528_
*574 _0529_
*575 _0530_
*576 _0531_
*577 _0532_
*578 _0533_
*579 _0534_
*580 _0535_
*581 _0536_
*582 _0537_
*583 _0538_
*584 _0539_
*585 _0540_
*586 _0541_
*587 _0542_
*588 _0543_
*589 _0544_
*590 _0545_
*591 _0546_
*592 _0547_
*593 _0548_
*594 _0549_
*595 _0550_
*596 _0551_
*597 _0552_
*598 _0553_
*599 _0554_
*600 _0555_
*601 _0556_
*602 _0557_
*603 _0558_
*604 _0559_
*605 _0560_
*606 _0561_
*607 _0562_
*608 _0563_
*609 _0564_
*610 _0565_
*611 _0566_
*612 _0567_
*613 _0568_
*614 _0569_
*615 _0570_
*616 _0571_
*617 _0572_
*618 _0573_
*619 _0574_
*620 _0575_
*621 _0576_
*622 _0577_
*623 _0578_
*624 _0579_
*625 _0580_
*626 _0581_
*627 _0582_
*628 _0583_
*629 _0584_
*630 _0585_
*631 _0586_
*632 _0587_
*633 _0588_
*634 _0589_
*635 _0590_
*636 _0591_
*637 _0592_
*638 _0593_
*639 _0594_
*640 _0595_
*641 _0596_
*642 _0597_
*643 _0598_
*644 _0599_
*645 _0600_
*646 _0601_
*647 _0602_
*648 _0603_
*649 _0604_
*650 _0605_
*651 _0606_
*652 _0607_
*653 _0608_
*654 _0609_
*655 _0610_
*656 _0611_
*657 _0612_
*658 _0613_
*659 _0614_
*660 _0615_
*661 _0616_
*662 _0617_
*663 _0618_
*664 _0619_
*665 _0620_
*666 _0621_
*667 _0622_
*668 _0623_
*669 _0624_
*670 _0625_
*671 _0626_
*672 _0627_
*673 _0628_
*674 _0629_
*675 _0630_
*676 _0631_
*677 _0632_
*678 _0633_
*679 _0634_
*680 _0635_
*681 _0636_
*682 _0637_
*683 _0638_
*684 _0639_
*685 _0640_
*686 _0641_
*687 _0642_
*688 _0643_
*689 _0644_
*690 _0645_
*691 _0646_
*692 _0647_
*693 _0648_
*694 _0649_
*695 _0650_
*696 _0651_
*697 _0652_
*698 _0653_
*699 _0654_
*700 _0655_
*701 _0656_
*702 _0657_
*703 _0658_
*704 _0659_
*705 _0660_
*706 _0661_
*707 _0662_
*708 _0663_
*709 _0664_
*710 _0665_
*711 _0666_
*712 _0667_
*713 _0668_
*714 _0669_
*715 _0670_
*716 _0671_
*717 _0672_
*718 _0673_
*719 _0674_
*720 _0675_
*721 _0676_
*722 _0677_
*723 _0678_
*724 _0679_
*725 _0680_
*726 _0681_
*727 _0682_
*728 _0683_
*729 _0684_
*730 _0685_
*731 _0686_
*732 _0687_
*733 _0688_
*734 _0689_
*735 _0690_
*736 _0691_
*737 _0692_
*738 _0693_
*739 _0694_
*740 _0695_
*741 _0696_
*742 _0697_
*743 _0698_
*744 _0699_
*745 _0700_
*746 _0701_
*747 _0702_
*748 _0703_
*749 _0704_
*750 _0705_
*751 _0706_
*752 _0707_
*753 _0708_
*754 _0709_
*755 _0710_
*756 _0711_
*757 _0712_
*758 _0713_
*759 _0714_
*760 _0715_
*761 _0716_
*762 _0717_
*763 _0718_
*764 _0719_
*765 _0720_
*766 _0721_
*767 _0722_
*768 _0723_
*769 _0724_
*770 _0725_
*771 _0726_
*772 _0727_
*773 _0728_
*774 _0729_
*775 _0730_
*776 _0731_
*777 _0732_
*778 _0733_
*779 _0734_
*780 _0735_
*781 _0736_
*782 _0737_
*783 _0738_
*784 _0739_
*785 _0740_
*786 _0741_
*787 _0742_
*788 _0743_
*789 _0744_
*790 _0745_
*791 _0746_
*792 _0747_
*793 _0748_
*794 _0749_
*795 _0750_
*796 _0751_
*797 _0752_
*798 _0753_
*799 _0754_
*800 _0755_
*801 _0756_
*802 _0757_
*803 _0758_
*804 _0759_
*805 _0760_
*806 _0761_
*807 _0762_
*808 _0763_
*809 _0764_
*810 _0765_
*811 _0766_
*812 _0767_
*813 _0768_
*814 _0769_
*815 _0770_
*816 _0771_
*817 _0772_
*818 _0773_
*819 _0774_
*820 _0775_
*821 _0776_
*822 _0777_
*823 _0778_
*824 _0779_
*825 _0780_
*826 _0781_
*827 _0782_
*828 _0783_
*829 _0784_
*830 _0785_
*831 _0786_
*832 _0787_
*833 _0788_
*834 _0789_
*835 _0790_
*836 _0791_
*837 _0792_
*838 _0793_
*839 _0794_
*840 _0795_
*841 _0796_
*842 _0797_
*843 _0798_
*844 _0799_
*845 _0800_
*846 _0801_
*847 _0802_
*848 _0803_
*849 _0804_
*850 _0805_
*851 _0806_
*852 _0807_
*853 _0808_
*854 _0809_
*855 _0810_
*856 _0811_
*857 _0812_
*858 _0813_
*859 _0814_
*860 _0815_
*861 _0816_
*862 _0817_
*863 _0818_
*864 _0819_
*865 _0820_
*866 _0821_
*867 _0822_
*868 _0823_
*869 _0824_
*870 _0825_
*871 _0826_
*872 _0827_
*873 _0828_
*874 _0829_
*875 _0830_
*876 _0831_
*877 _0832_
*878 _0833_
*879 _0834_
*880 _0835_
*881 _0836_
*882 _0837_
*883 _0838_
*884 _0839_
*885 _0840_
*886 _0841_
*887 _0842_
*888 _0843_
*889 _0844_
*890 _0845_
*891 _0846_
*892 _0847_
*893 _0848_
*894 _0849_
*895 _0850_
*896 _0851_
*897 _0852_
*898 _0853_
*899 _0854_
*900 _0855_
*901 _0856_
*902 _0857_
*903 _0858_
*904 _0859_
*905 _0860_
*906 _0861_
*907 _0862_
*908 _0863_
*909 _0864_
*910 _0865_
*911 _0866_
*912 _0867_
*913 _0868_
*914 _0869_
*915 _0870_
*916 _0871_
*917 _0872_
*918 _0873_
*919 _0874_
*920 _0875_
*921 _0876_
*922 _0877_
*923 _0878_
*924 _0879_
*925 _0880_
*926 _0881_
*927 _0882_
*928 _0883_
*929 _0884_
*930 _0885_
*931 _0886_
*932 _0887_
*933 _0888_
*934 _0889_
*935 _0890_
*936 _0891_
*937 _0892_
*938 _0893_
*939 _0894_
*940 _0895_
*941 _0896_
*942 _0897_
*943 _0898_
*944 _0899_
*945 _0900_
*946 _0901_
*947 _0902_
*948 _0903_
*949 _0904_
*950 _0905_
*951 _0906_
*952 _0907_
*953 _0908_
*954 _0909_
*955 _0910_
*956 _0911_
*957 _0912_
*958 _0913_
*959 _0914_
*960 _0915_
*961 _0916_
*962 _0917_
*963 _0918_
*964 _0919_
*965 _0920_
*966 _0921_
*967 _0922_
*968 _0923_
*969 _0924_
*970 _0925_
*971 _0926_
*972 _0927_
*973 _0928_
*974 _0929_
*975 _0930_
*976 _0931_
*977 _0932_
*978 _0933_
*979 _0934_
*980 _0935_
*981 _0936_
*982 _0937_
*983 _0938_
*984 _0939_
*985 _0940_
*986 _0941_
*987 _0942_
*988 _0943_
*989 _0944_
*990 _0945_
*991 _0946_
*992 _0947_
*993 _0948_
*994 _0949_
*995 _0950_
*996 _0951_
*997 _0952_
*998 _0953_
*999 _0954_
*1000 _0955_
*1001 _0956_
*1002 _0957_
*1003 _0958_
*1004 _0959_
*1005 _0960_
*1006 _0961_
*1007 _0962_
*1008 _0963_
*1009 _0964_
*1010 _0965_
*1011 _0966_
*1012 _0967_
*1013 _0968_
*1014 _0969_
*1015 _0970_
*1016 _0971_
*1017 _0972_
*1018 _0973_
*1019 _0974_
*1020 _0975_
*1021 _0976_
*1022 _0977_
*1023 _0978_
*1024 _0979_
*1025 _0980_
*1026 _0981_
*1027 _0982_
*1028 _0983_
*1029 _0984_
*1030 _0985_
*1031 _0986_
*1032 _0987_
*1033 _0988_
*1034 _0989_
*1035 _0990_
*1036 _0991_
*1037 _0992_
*1038 _0993_
*1039 _0994_
*1040 _0995_
*1041 _0996_
*1042 _0997_
*1043 _0998_
*1044 _0999_
*1045 _1000_
*1046 _1001_
*1047 _1002_
*1048 _1003_
*1049 _1004_
*1050 _1005_
*1051 _1006_
*1052 _1007_
*1053 _1008_
*1054 _1009_
*1055 _1010_
*1056 _1011_
*1057 _1012_
*1058 _1013_
*1059 _1014_
*1060 _1015_
*1061 _1016_
*1062 _1017_
*1063 _1018_
*1064 _1019_
*1065 _1020_
*1066 _1021_
*1067 _1022_
*1068 _1023_
*1069 _1024_
*1070 _1025_
*1071 _1026_
*1072 _1027_
*1073 _1028_
*1074 _1029_
*1075 _1030_
*1076 _1031_
*1077 _1032_
*1078 _1033_
*1079 _1034_
*1080 _1035_
*1081 _1036_
*1082 _1037_
*1083 _1038_
*1084 _1039_
*1085 _1040_
*1086 _1041_
*1087 _1042_
*1088 _1043_
*1089 _1044_
*1090 _1045_
*1091 _1046_
*1092 _1047_
*1093 _1048_
*1094 _1049_
*1095 _1050_
*1096 _1051_
*1097 _1052_
*1098 _1053_
*1099 _1054_
*1100 _1055_
*1101 _1056_
*1102 _1057_
*1103 _1058_
*1104 _1059_
*1105 _1060_
*1106 _1061_
*1107 _1062_
*1108 _1063_
*1109 _1064_
*1110 _1065_
*1111 _1066_
*1112 _1067_
*1113 _1068_
*1114 _1069_
*1115 _1070_
*1116 _1071_
*1117 _1072_
*1118 _1073_
*1119 _1074_
*1120 _1075_
*1121 _1076_
*1122 _1077_
*1123 _1078_
*1124 _1079_
*1125 _1080_
*1126 _1081_
*1127 _1082_
*1128 _1083_
*1129 _1084_
*1130 _1085_
*1131 _1086_
*1132 _1087_
*1133 _1088_
*1134 _1089_
*1135 _1090_
*1136 _1091_
*1137 _1092_
*1138 _1093_
*1139 _1094_
*1140 _1095_
*1141 _1096_
*1142 _1097_
*1143 _1098_
*1144 _1099_
*1145 _1100_
*1146 _1101_
*1147 _1102_
*1148 _1103_
*1149 _1104_
*1150 _1105_
*1151 _1106_
*1152 _1107_
*1153 _1108_
*1154 _1109_
*1155 _1110_
*1156 _1111_
*1157 _1112_
*1158 _1113_
*1159 _1114_
*1160 _1115_
*1161 _1116_
*1162 _1117_
*1163 _1118_
*1164 _1119_
*1165 _1120_
*1166 _1121_
*1167 _1122_
*1168 _1123_
*1169 _1124_
*1170 _1125_
*1171 _1126_
*1172 _1127_
*1173 _1128_
*1174 _1129_
*1175 _1130_
*1176 _1131_
*1177 _1132_
*1178 _1133_
*1179 _1134_
*1180 _1135_
*1181 _1136_
*1182 _1137_
*1183 _1138_
*1184 _1139_
*1185 _1140_
*1186 _1141_
*1187 _1142_
*1188 _1143_
*1189 _1144_
*1190 _1145_
*1191 _1146_
*1192 _1147_
*1193 _1148_
*1194 _1149_
*1195 _1150_
*1196 _1151_
*1197 _1152_
*1198 _1153_
*1199 _1154_
*1200 _1155_
*1201 _1156_
*1202 _1157_
*1203 _1158_
*1204 _1159_
*1205 _1160_
*1206 _1161_
*1207 _1162_
*1208 _1163_
*1209 _1164_
*1210 _1165_
*1211 _1166_
*1212 _1167_
*1213 _1168_
*1214 _1169_
*1215 _1170_
*1216 _1171_
*1217 _1172_
*1218 _1173_
*1219 _1174_
*1220 _1175_
*1221 _1176_
*1222 _1177_
*1223 _1178_
*1224 _1179_
*1225 _1180_
*1226 _1181_
*1227 _1182_
*1228 _1183_
*1229 _1184_
*1230 _1185_
*1231 _1186_
*1232 _1187_
*1233 _1188_
*1234 _1189_
*1235 _1190_
*1236 _1191_
*1237 _1192_
*1238 _1193_
*1239 _1194_
*1240 _1195_
*1241 _1196_
*1242 _1197_
*1243 _1198_
*1244 _1199_
*1245 _1200_
*1246 _1201_
*1247 _1202_
*1248 _1203_
*1249 _1204_
*1250 _1205_
*1251 _1206_
*1252 _1207_
*1253 _1208_
*1254 _1209_
*1255 _1210_
*1256 _1211_
*1257 _1212_
*1258 _1213_
*1259 _1214_
*1260 _1215_
*1261 _1216_
*1262 _1217_
*1263 _1218_
*1264 _1219_
*1265 _1220_
*1266 _1221_
*1267 _1222_
*1268 _1223_
*1269 _1224_
*1270 _1225_
*1271 _1226_
*1272 _1227_
*1273 _1228_
*1274 _1229_
*1275 _1230_
*1276 _1231_
*1277 _1232_
*1278 _1233_
*1279 _1234_
*1280 _1235_
*1281 _1236_
*1282 _1237_
*1283 _1238_
*1284 _1239_
*1285 _1240_
*1286 _1241_
*1287 _1242_
*1288 _1243_
*1289 _1244_
*1290 _1245_
*1291 _1246_
*1292 _1247_
*1293 _1248_
*1294 _1249_
*1295 _1250_
*1296 _1251_
*1297 _1252_
*1298 _1253_
*1299 _1254_
*1300 _1255_
*1301 _1256_
*1302 _1257_
*1303 _1258_
*1304 _1259_
*1305 _1260_
*1306 _1261_
*1307 _1262_
*1308 _1263_
*1309 _1264_
*1310 _1265_
*1311 _1266_
*1312 _1267_
*1313 _1268_
*1314 _1269_
*1315 _1270_
*1316 _1271_
*1317 _1272_
*1318 _1273_
*1319 _1274_
*1320 _1275_
*1321 _1276_
*1322 _1277_
*1323 _1278_
*1324 _1279_
*1325 _1280_
*1326 _1281_
*1327 _1282_
*1328 _1283_
*1329 _1284_
*1330 _1285_
*1331 _1286_
*1332 _1287_
*1333 _1288_
*1334 _1289_
*1335 _1290_
*1336 _1291_
*1337 _1292_
*1338 _1293_
*1339 _1294_
*1340 _1295_
*1341 _1296_
*1342 _1297_
*1343 _1298_
*1344 _1299_
*1345 _1300_
*1346 _1301_
*1347 _1302_
*1348 _1303_
*1349 _1304_
*1350 _1305_
*1351 _1306_
*1352 _1307_
*1353 _1308_
*1354 _1309_
*1355 _1310_
*1356 _1311_
*1357 _1312_
*1358 _1313_
*1359 _1314_
*1360 _1315_
*1361 _1316_
*1362 _1317_
*1363 _1318_
*1364 _1319_
*1365 _1320_
*1366 _1321_
*1367 _1322_
*1368 _1323_
*1369 _1324_
*1370 _1325_
*1371 _1326_
*1372 _1327_
*1373 _1328_
*1374 _1329_
*1375 _1330_
*1376 _1331_
*1377 _1332_
*1378 _1333_
*1379 _1334_
*1380 _1335_
*1381 _1336_
*1382 _1337_
*1383 _1338_
*1384 _1339_
*1385 _1340_
*1386 _1341_
*1387 _1342_
*1388 _1343_
*1389 _1344_
*1390 _1345_
*1391 _1346_
*1392 _1347_
*1393 _1348_
*1394 _1349_
*1395 _1350_
*1396 _1351_
*1397 _1352_
*1398 _1353_
*1399 _1354_
*1400 _1355_
*1401 _1356_
*1402 _1357_
*1403 _1358_
*1404 _1359_
*1405 _1360_
*1406 _1361_
*1407 _1362_
*1408 _1363_
*1409 _1364_
*1410 _1365_
*1411 _1366_
*1412 _1367_
*1413 _1368_
*1414 _1369_
*1415 _1370_
*1416 _1371_
*1417 _1372_
*1418 _1373_
*1419 _1374_
*1420 _1375_
*1421 _1376_
*1422 _1377_
*1423 _1378_
*1424 _1379_
*1425 _1380_
*1426 _1381_
*1427 _1382_
*1428 _1383_
*1429 _1384_
*1430 _1385_
*1431 _1386_
*1432 _1387_
*1433 _1388_
*1434 _1389_
*1435 _1390_
*1436 _1391_
*1437 _1392_
*1438 _1393_
*1439 _1394_
*1440 _1395_
*1441 _1396_
*1442 _1397_
*1443 _1398_
*1444 _1399_
*1445 _1400_
*1446 _1401_
*1447 _1402_
*1448 _1403_
*1449 _1404_
*1450 _1405_
*1451 _1406_
*1452 _1407_
*1453 _1408_
*1454 _1409_
*1455 _1410_
*1456 _1411_
*1457 _1412_
*1458 _1413_
*1459 _1414_
*1460 _1415_
*1461 _1416_
*1462 _1417_
*1463 _1418_
*1464 _1419_
*1465 _1420_
*1466 _1421_
*1467 _1422_
*1468 _1423_
*1469 _1424_
*1470 _1425_
*1471 _1426_
*1472 _1427_
*1473 _1428_
*1474 _1429_
*1475 alu_0\.adder_8bit_0\.carry_propagate_adder\[0\]\.cs_add_0\.x
*1476 alu_0\.adder_8bit_0\.carry_propagate_adder\[1\]\.cs_add_0\.x
*1477 alu_0\.adder_8bit_0\.carry_propagate_adder\[2\]\.cs_add_0\.x
*1478 alu_0\.adder_8bit_0\.carry_propagate_adder\[3\]\.cs_add_0\.x
*1479 alu_0\.adder_8bit_0\.carry_propagate_adder\[4\]\.cs_add_0\.x
*1480 alu_0\.adder_8bit_0\.carry_propagate_adder\[5\]\.cs_add_0\.x
*1481 alu_0\.adder_8bit_0\.carry_propagate_adder\[6\]\.cs_add_0\.x
*1482 alu_0\.adder_8bit_0\.carry_propagate_adder\[7\]\.cs_add_0\.x
*1483 bfrd_fcrv
*1484 clknet_0_clk
*1485 clknet_1_0__leaf_clk
*1486 clknet_1_1__leaf_clk
*1487 clknet_leaf_0_clk
*1488 clknet_leaf_10_clk
*1489 clknet_leaf_11_clk
*1490 clknet_leaf_12_clk
*1491 clknet_leaf_13_clk
*1492 clknet_leaf_14_clk
*1493 clknet_leaf_15_clk
*1494 clknet_leaf_16_clk
*1495 clknet_leaf_17_clk
*1496 clknet_leaf_18_clk
*1497 clknet_leaf_19_clk
*1498 clknet_leaf_1_clk
*1499 clknet_leaf_20_clk
*1500 clknet_leaf_21_clk
*1501 clknet_leaf_22_clk
*1502 clknet_leaf_23_clk
*1503 clknet_leaf_24_clk
*1504 clknet_leaf_25_clk
*1505 clknet_leaf_26_clk
*1506 clknet_leaf_27_clk
*1507 clknet_leaf_2_clk
*1508 clknet_leaf_3_clk
*1509 clknet_leaf_4_clk
*1510 clknet_leaf_5_clk
*1511 clknet_leaf_6_clk
*1512 clknet_leaf_7_clk
*1513 clknet_leaf_8_clk
*1514 clknet_leaf_9_clk
*1515 control_logic_0\.is_exec
*1516 control_logic_0\.is_idle
*1517 control_logic_0\.is_rid_15
*1518 control_logic_0\.pc_in\[0\]
*1519 control_logic_0\.pc_in\[1\]
*1520 control_logic_0\.pc_in\[2\]
*1521 control_logic_0\.pc_in\[3\]
*1522 control_logic_0\.st\[1\]
*1523 control_logic_0\.st\[3\]
*1524 dcache\.anim_reg_out\[0\]
*1525 dcache\.anim_reg_out\[1\]
*1526 dcache\.anim_reg_out\[2\]
*1527 dcache\.anim_reg_out\[3\]
*1528 dcache\.anim_reg_out\[4\]
*1529 dcache\.anim_reg_out\[5\]
*1530 dcache\.anim_reg_out\[6\]
*1531 dcache\.anim_reg_out\[7\]
*1532 dcache\.frame_cntr_data_out\[0\]
*1533 dcache\.frame_cntr_data_out\[10\]
*1534 dcache\.frame_cntr_data_out\[11\]
*1535 dcache\.frame_cntr_data_out\[12\]
*1536 dcache\.frame_cntr_data_out\[13\]
*1537 dcache\.frame_cntr_data_out\[14\]
*1538 dcache\.frame_cntr_data_out\[15\]
*1539 dcache\.frame_cntr_data_out\[16\]
*1540 dcache\.frame_cntr_data_out\[17\]
*1541 dcache\.frame_cntr_data_out\[18\]
*1542 dcache\.frame_cntr_data_out\[19\]
*1543 dcache\.frame_cntr_data_out\[1\]
*1544 dcache\.frame_cntr_data_out\[20\]
*1545 dcache\.frame_cntr_data_out\[21\]
*1546 dcache\.frame_cntr_data_out\[22\]
*1547 dcache\.frame_cntr_data_out\[23\]
*1548 dcache\.frame_cntr_data_out\[24\]
*1549 dcache\.frame_cntr_data_out\[25\]
*1550 dcache\.frame_cntr_data_out\[26\]
*1551 dcache\.frame_cntr_data_out\[27\]
*1552 dcache\.frame_cntr_data_out\[28\]
*1553 dcache\.frame_cntr_data_out\[29\]
*1554 dcache\.frame_cntr_data_out\[2\]
*1555 dcache\.frame_cntr_data_out\[30\]
*1556 dcache\.frame_cntr_data_out\[31\]
*1557 dcache\.frame_cntr_data_out\[3\]
*1558 dcache\.frame_cntr_data_out\[4\]
*1559 dcache\.frame_cntr_data_out\[5\]
*1560 dcache\.frame_cntr_data_out\[6\]
*1561 dcache\.frame_cntr_data_out\[7\]
*1562 dcache\.frame_cntr_data_out\[8\]
*1563 dcache\.frame_cntr_data_out\[9\]
*1564 dcache\.mem\[0\]\[0\]
*1565 dcache\.mem\[0\]\[1\]
*1566 dcache\.mem\[0\]\[2\]
*1567 dcache\.mem\[0\]\[3\]
*1568 dcache\.mem\[0\]\[4\]
*1569 dcache\.mem\[0\]\[5\]
*1570 dcache\.mem\[0\]\[6\]
*1571 dcache\.mem\[0\]\[7\]
*1572 dcache\.mem\[1\]\[0\]
*1573 dcache\.mem\[1\]\[1\]
*1574 dcache\.mem\[1\]\[2\]
*1575 dcache\.mem\[1\]\[3\]
*1576 dcache\.mem\[1\]\[4\]
*1577 dcache\.mem\[1\]\[5\]
*1578 dcache\.mem\[1\]\[6\]
*1579 dcache\.mem\[1\]\[7\]
*1580 dcache\.mem\[2\]\[0\]
*1581 dcache\.mem\[2\]\[1\]
*1582 dcache\.mem\[2\]\[2\]
*1583 dcache\.mem\[2\]\[3\]
*1584 dcache\.mem\[2\]\[4\]
*1585 dcache\.mem\[2\]\[5\]
*1586 dcache\.mem\[2\]\[6\]
*1587 dcache\.mem\[2\]\[7\]
*1588 dcache\.mem\[3\]\[0\]
*1589 dcache\.mem\[3\]\[1\]
*1590 dcache\.mem\[3\]\[2\]
*1591 dcache\.mem\[3\]\[3\]
*1592 dcache\.mem\[3\]\[4\]
*1593 dcache\.mem\[3\]\[5\]
*1594 dcache\.mem\[3\]\[6\]
*1595 dcache\.mem\[3\]\[7\]
*1596 dcache\.mem\[4\]\[0\]
*1597 dcache\.mem\[4\]\[1\]
*1598 dcache\.mem\[4\]\[2\]
*1599 dcache\.mem\[4\]\[3\]
*1600 dcache\.mem\[4\]\[4\]
*1601 dcache\.mem\[4\]\[5\]
*1602 dcache\.mem\[4\]\[6\]
*1603 dcache\.mem\[4\]\[7\]
*1604 dcache\.mem\[5\]\[0\]
*1605 dcache\.mem\[5\]\[1\]
*1606 dcache\.mem\[5\]\[2\]
*1607 dcache\.mem\[5\]\[3\]
*1608 dcache\.mem\[5\]\[4\]
*1609 dcache\.mem\[5\]\[5\]
*1610 dcache\.mem\[5\]\[6\]
*1611 dcache\.mem\[5\]\[7\]
*1612 dcache\.mem\[6\]\[0\]
*1613 dcache\.mem\[6\]\[1\]
*1614 dcache\.mem\[6\]\[2\]
*1615 dcache\.mem\[6\]\[3\]
*1616 dcache\.mem\[6\]\[4\]
*1617 dcache\.mem\[6\]\[5\]
*1618 dcache\.mem\[6\]\[6\]
*1619 dcache\.mem\[6\]\[7\]
*1620 dcache\.mem\[7\]\[0\]
*1621 dcache\.mem\[7\]\[1\]
*1622 dcache\.mem\[7\]\[2\]
*1623 dcache\.mem\[7\]\[3\]
*1624 dcache\.mem\[7\]\[4\]
*1625 dcache\.mem\[7\]\[5\]
*1626 dcache\.mem\[7\]\[6\]
*1627 dcache\.mem\[7\]\[7\]
*1628 dcache\.mem\[8\]\[0\]
*1629 dcache\.mem\[8\]\[1\]
*1630 dcache\.mem\[8\]\[2\]
*1631 dcache\.mem\[8\]\[3\]
*1632 dcache\.mem\[8\]\[4\]
*1633 dcache\.mem\[8\]\[5\]
*1634 dcache\.mem\[8\]\[6\]
*1635 dcache\.mem\[8\]\[7\]
*1636 frame_cntr_0\.counter\[0\]
*1637 frame_cntr_0\.counter\[10\]
*1638 frame_cntr_0\.counter\[11\]
*1639 frame_cntr_0\.counter\[12\]
*1640 frame_cntr_0\.counter\[13\]
*1641 frame_cntr_0\.counter\[14\]
*1642 frame_cntr_0\.counter\[15\]
*1643 frame_cntr_0\.counter\[16\]
*1644 frame_cntr_0\.counter\[17\]
*1645 frame_cntr_0\.counter\[18\]
*1646 frame_cntr_0\.counter\[19\]
*1647 frame_cntr_0\.counter\[1\]
*1648 frame_cntr_0\.counter\[20\]
*1649 frame_cntr_0\.counter\[21\]
*1650 frame_cntr_0\.counter\[22\]
*1651 frame_cntr_0\.counter\[23\]
*1652 frame_cntr_0\.counter\[24\]
*1653 frame_cntr_0\.counter\[25\]
*1654 frame_cntr_0\.counter\[26\]
*1655 frame_cntr_0\.counter\[27\]
*1656 frame_cntr_0\.counter\[28\]
*1657 frame_cntr_0\.counter\[29\]
*1658 frame_cntr_0\.counter\[2\]
*1659 frame_cntr_0\.counter\[30\]
*1660 frame_cntr_0\.counter\[31\]
*1661 frame_cntr_0\.counter\[3\]
*1662 frame_cntr_0\.counter\[4\]
*1663 frame_cntr_0\.counter\[5\]
*1664 frame_cntr_0\.counter\[6\]
*1665 frame_cntr_0\.counter\[7\]
*1666 frame_cntr_0\.counter\[8\]
*1667 frame_cntr_0\.counter\[9\]
*1668 icache\.data_in\[0\]
*1669 icache\.data_in\[1\]
*1670 icache\.data_in\[2\]
*1671 icache\.data_in\[3\]
*1672 icache\.data_in\[4\]
*1673 icache\.data_in\[5\]
*1674 icache\.data_in\[6\]
*1675 icache\.data_in\[7\]
*1676 icache\.mem\[0\]\[0\]
*1677 icache\.mem\[0\]\[1\]
*1678 icache\.mem\[0\]\[2\]
*1679 icache\.mem\[0\]\[3\]
*1680 icache\.mem\[0\]\[4\]
*1681 icache\.mem\[0\]\[5\]
*1682 icache\.mem\[0\]\[6\]
*1683 icache\.mem\[0\]\[7\]
*1684 icache\.mem\[10\]\[0\]
*1685 icache\.mem\[10\]\[1\]
*1686 icache\.mem\[10\]\[2\]
*1687 icache\.mem\[10\]\[3\]
*1688 icache\.mem\[10\]\[4\]
*1689 icache\.mem\[10\]\[5\]
*1690 icache\.mem\[10\]\[6\]
*1691 icache\.mem\[10\]\[7\]
*1692 icache\.mem\[11\]\[0\]
*1693 icache\.mem\[11\]\[1\]
*1694 icache\.mem\[11\]\[2\]
*1695 icache\.mem\[11\]\[3\]
*1696 icache\.mem\[11\]\[4\]
*1697 icache\.mem\[11\]\[5\]
*1698 icache\.mem\[11\]\[6\]
*1699 icache\.mem\[11\]\[7\]
*1700 icache\.mem\[12\]\[0\]
*1701 icache\.mem\[12\]\[1\]
*1702 icache\.mem\[12\]\[2\]
*1703 icache\.mem\[12\]\[3\]
*1704 icache\.mem\[12\]\[4\]
*1705 icache\.mem\[12\]\[5\]
*1706 icache\.mem\[12\]\[6\]
*1707 icache\.mem\[12\]\[7\]
*1708 icache\.mem\[13\]\[0\]
*1709 icache\.mem\[13\]\[1\]
*1710 icache\.mem\[13\]\[2\]
*1711 icache\.mem\[13\]\[3\]
*1712 icache\.mem\[13\]\[4\]
*1713 icache\.mem\[13\]\[5\]
*1714 icache\.mem\[13\]\[6\]
*1715 icache\.mem\[13\]\[7\]
*1716 icache\.mem\[14\]\[0\]
*1717 icache\.mem\[14\]\[1\]
*1718 icache\.mem\[14\]\[2\]
*1719 icache\.mem\[14\]\[3\]
*1720 icache\.mem\[14\]\[4\]
*1721 icache\.mem\[14\]\[5\]
*1722 icache\.mem\[14\]\[6\]
*1723 icache\.mem\[14\]\[7\]
*1724 icache\.mem\[15\]\[0\]
*1725 icache\.mem\[15\]\[1\]
*1726 icache\.mem\[15\]\[2\]
*1727 icache\.mem\[15\]\[3\]
*1728 icache\.mem\[15\]\[4\]
*1729 icache\.mem\[15\]\[5\]
*1730 icache\.mem\[15\]\[6\]
*1731 icache\.mem\[15\]\[7\]
*1732 icache\.mem\[1\]\[0\]
*1733 icache\.mem\[1\]\[1\]
*1734 icache\.mem\[1\]\[2\]
*1735 icache\.mem\[1\]\[3\]
*1736 icache\.mem\[1\]\[4\]
*1737 icache\.mem\[1\]\[5\]
*1738 icache\.mem\[1\]\[6\]
*1739 icache\.mem\[1\]\[7\]
*1740 icache\.mem\[2\]\[0\]
*1741 icache\.mem\[2\]\[1\]
*1742 icache\.mem\[2\]\[2\]
*1743 icache\.mem\[2\]\[3\]
*1744 icache\.mem\[2\]\[4\]
*1745 icache\.mem\[2\]\[5\]
*1746 icache\.mem\[2\]\[6\]
*1747 icache\.mem\[2\]\[7\]
*1748 icache\.mem\[3\]\[0\]
*1749 icache\.mem\[3\]\[1\]
*1750 icache\.mem\[3\]\[2\]
*1751 icache\.mem\[3\]\[3\]
*1752 icache\.mem\[3\]\[4\]
*1753 icache\.mem\[3\]\[5\]
*1754 icache\.mem\[3\]\[6\]
*1755 icache\.mem\[3\]\[7\]
*1756 icache\.mem\[4\]\[0\]
*1757 icache\.mem\[4\]\[1\]
*1758 icache\.mem\[4\]\[2\]
*1759 icache\.mem\[4\]\[3\]
*1760 icache\.mem\[4\]\[4\]
*1761 icache\.mem\[4\]\[5\]
*1762 icache\.mem\[4\]\[6\]
*1763 icache\.mem\[4\]\[7\]
*1764 icache\.mem\[5\]\[0\]
*1765 icache\.mem\[5\]\[1\]
*1766 icache\.mem\[5\]\[2\]
*1767 icache\.mem\[5\]\[3\]
*1768 icache\.mem\[5\]\[4\]
*1769 icache\.mem\[5\]\[5\]
*1770 icache\.mem\[5\]\[6\]
*1771 icache\.mem\[5\]\[7\]
*1772 icache\.mem\[6\]\[0\]
*1773 icache\.mem\[6\]\[1\]
*1774 icache\.mem\[6\]\[2\]
*1775 icache\.mem\[6\]\[3\]
*1776 icache\.mem\[6\]\[4\]
*1777 icache\.mem\[6\]\[5\]
*1778 icache\.mem\[6\]\[6\]
*1779 icache\.mem\[6\]\[7\]
*1780 icache\.mem\[7\]\[0\]
*1781 icache\.mem\[7\]\[1\]
*1782 icache\.mem\[7\]\[2\]
*1783 icache\.mem\[7\]\[3\]
*1784 icache\.mem\[7\]\[4\]
*1785 icache\.mem\[7\]\[5\]
*1786 icache\.mem\[7\]\[6\]
*1787 icache\.mem\[7\]\[7\]
*1788 icache\.mem\[8\]\[0\]
*1789 icache\.mem\[8\]\[1\]
*1790 icache\.mem\[8\]\[2\]
*1791 icache\.mem\[8\]\[3\]
*1792 icache\.mem\[8\]\[4\]
*1793 icache\.mem\[8\]\[5\]
*1794 icache\.mem\[8\]\[6\]
*1795 icache\.mem\[8\]\[7\]
*1796 icache\.mem\[9\]\[0\]
*1797 icache\.mem\[9\]\[1\]
*1798 icache\.mem\[9\]\[2\]
*1799 icache\.mem\[9\]\[3\]
*1800 icache\.mem\[9\]\[4\]
*1801 icache\.mem\[9\]\[5\]
*1802 icache\.mem\[9\]\[6\]
*1803 icache\.mem\[9\]\[7\]
*1804 net1
*1805 net10
*1806 net100
*1807 net101
*1808 net102
*1809 net103
*1810 net104
*1811 net105
*1812 net106
*1813 net107
*1814 net108
*1815 net109
*1816 net11
*1817 net110
*1818 net111
*1819 net112
*1820 net113
*1821 net114
*1822 net115
*1823 net116
*1824 net117
*1825 net118
*1826 net119
*1827 net12
*1828 net120
*1829 net121
*1830 net122
*1831 net123
*1832 net124
*1833 net125
*1834 net126
*1835 net127
*1836 net128
*1837 net129
*1838 net130
*1839 net131
*1840 net132
*1841 net133
*1842 net134
*1843 net135
*1844 net136
*1845 net137
*1846 net138
*1847 net139
*1848 net140
*1849 net141
*1850 net142
*1851 net143
*1852 net144
*1853 net145
*1854 net146
*1855 net147
*1856 net148
*1857 net149
*1858 net150
*1859 net151
*1860 net152
*1861 net153
*1862 net154
*1863 net155
*1864 net156
*1865 net157
*1866 net158
*1867 net159
*1868 net160
*1869 net161
*1870 net162
*1871 net163
*1872 net164
*1873 net165
*1874 net166
*1875 net167
*1876 net168
*1877 net169
*1878 net170
*1879 net171
*1880 net172
*1881 net173
*1882 net174
*1883 net175
*1884 net176
*1885 net177
*1886 net178
*1887 net179
*1888 net180
*1889 net181
*1890 net182
*1891 net183
*1892 net184
*1893 net185
*1894 net186
*1895 net187
*1896 net188
*1897 net189
*1898 net190
*1899 net191
*1900 net192
*1901 net193
*1902 net194
*1903 net195
*1904 net196
*1905 net197
*1906 net198
*1907 net199
*1908 net2
*1909 net200
*1910 net201
*1911 net202
*1912 net203
*1913 net204
*1914 net205
*1915 net206
*1916 net207
*1917 net208
*1918 net209
*1919 net210
*1920 net211