*SPEF "ieee 1481-1999"
*DESIGN "tt_um_robojan_pong_top"
*DATE "11:11:11 Fri 11 11, 1111"
*VENDOR "OpenRCX"
*PROGRAM "Parallel Extraction"
*VERSION "1.0"
*DESIGN_FLOW "NAME_SCOPE LOCAL" "PIN_CAP NONE"
*DIVIDER /
*DELIMITER :
*BUS_DELIMITER []
*T_UNIT 1 NS
*C_UNIT 1 PF
*R_UNIT 1 OHM
*L_UNIT 1 HENRY

*NAME_MAP
*3 clk
*4 ena
*5 rst_n
*6 ui_in[0]
*7 ui_in[1]
*8 ui_in[2]
*9 ui_in[3]
*10 ui_in[4]
*11 ui_in[5]
*12 ui_in[6]
*13 ui_in[7]
*14 uio_in[0]
*15 uio_in[1]
*16 uio_in[2]
*17 uio_in[3]
*18 uio_in[4]
*19 uio_in[5]
*20 uio_in[6]
*21 uio_in[7]
*22 net30
*23 net40
*24 net41
*25 net42
*26 net31
*27 net32
*28 net33
*29 net34
*30 net35
*31 uio_out[1]
*32 uio_out[2]
*33 uio_out[3]
*34 net36
*35 net37
*36 net38
*37 net39
*38 uo_out[0]
*39 uo_out[1]
*40 uo_out[2]
*41 uo_out[3]
*42 uo_out[4]
*43 uo_out[5]
*44 uo_out[6]
*45 uo_out[7]
*46 _0000_
*47 _0001_
*48 _0002_
*49 _0003_
*50 _0004_
*51 _0005_
*52 _0006_
*53 _0007_
*54 _0008_
*55 _0009_
*56 _0010_
*57 _0011_
*58 _0012_
*59 _0013_
*60 _0014_
*61 _0015_
*62 _0016_
*63 _0017_
*64 _0018_
*65 _0019_
*66 _0020_
*67 _0021_
*68 _0022_
*69 _0023_
*70 _0024_
*71 _0025_
*72 _0026_
*73 _0027_
*74 _0028_
*75 _0029_
*76 _0030_
*77 _0031_
*78 _0032_
*79 _0033_
*80 _0034_
*81 _0035_
*82 _0036_
*83 _0037_
*84 _0038_
*85 _0039_
*86 _0040_
*87 _0041_
*88 _0042_
*89 _0043_
*90 _0044_
*91 _0045_
*92 _0046_
*93 _0047_
*94 _0048_
*95 _0049_
*96 _0050_
*97 _0051_
*98 _0052_
*99 _0053_
*100 _0054_
*101 _0055_
*102 _0056_
*103 _0057_
*104 _0058_
*105 _0059_
*106 _0060_
*107 _0061_
*108 _0062_
*109 _0063_
*110 _0064_
*111 _0065_
*112 _0066_
*113 _0067_
*114 _0068_
*115 _0069_
*116 _0070_
*117 _0071_
*118 _0072_
*119 _0073_
*120 _0074_
*121 _0075_
*122 _0076_
*123 _0077_
*124 _0078_
*125 _0079_
*126 _0080_
*127 _0081_
*128 _0082_
*129 _0083_
*130 _0084_
*131 _0085_
*132 _0086_
*133 _0087_
*134 _0088_
*135 _0089_
*136 _0090_
*137 _0091_
*138 _0092_
*139 _0093_
*140 _0094_
*141 _0095_
*142 _0096_
*143 _0097_
*144 _0098_
*145 _0099_
*146 _0100_
*147 _0101_
*148 _0102_
*149 _0103_
*150 _0104_
*151 _0105_
*152 _0106_
*153 _0107_
*154 _0108_
*155 _0109_
*156 _0110_
*157 _0111_
*158 _0112_
*159 _0113_
*160 _0114_
*161 _0115_
*162 _0116_
*163 _0117_
*164 _0118_
*165 _0119_
*166 _0120_
*167 _0121_
*168 _0122_
*169 _0123_
*170 _0124_
*171 _0125_
*172 _0126_
*173 _0127_
*174 _0128_
*175 _0129_
*176 _0130_
*177 _0131_
*178 _0132_
*179 _0133_
*180 _0134_
*181 _0135_
*182 _0136_
*183 _0137_
*184 _0138_
*185 _0139_
*186 _0140_
*187 _0141_
*188 _0142_
*189 _0143_
*190 _0144_
*191 _0145_
*192 _0146_
*193 _0147_
*194 _0148_
*195 _0149_
*196 _0150_
*197 _0151_
*198 _0152_
*199 _0153_
*200 _0154_
*201 _0155_
*202 _0156_
*203 _0157_
*204 _0158_
*205 _0159_
*206 _0160_
*207 _0161_
*208 _0162_
*209 _0163_
*210 _0164_
*211 _0165_
*212 _0166_
*213 _0167_
*214 _0168_
*215 _0169_
*216 _0170_
*217 _0171_
*218 _0172_
*219 _0173_
*220 _0174_
*221 _0175_
*222 _0176_
*223 _0177_
*224 _0178_
*225 _0179_
*226 _0180_
*227 _0181_
*228 _0182_
*229 _0183_
*230 _0184_
*231 _0185_
*232 _0186_
*233 _0187_
*234 _0188_
*235 _0189_
*236 _0190_
*237 _0191_
*238 _0192_
*239 _0193_
*240 _0194_
*241 _0195_
*242 _0196_
*243 _0197_
*244 _0198_
*245 _0199_
*246 _0200_
*247 _0201_
*248 _0202_
*249 _0203_
*250 _0204_
*251 _0205_
*252 _0206_
*253 _0207_
*254 _0208_
*255 _0209_
*256 _0210_
*257 _0211_
*258 _0212_
*259 _0213_
*260 _0214_
*261 _0215_
*262 _0216_
*263 _0217_
*264 _0218_
*265 _0219_
*266 _0220_
*267 _0221_
*268 _0222_
*269 _0223_
*270 _0224_
*271 _0225_
*272 _0226_
*273 _0227_
*274 _0228_
*275 _0229_
*276 _0230_
*277 _0231_
*278 _0232_
*279 _0233_
*280 _0234_
*281 _0235_
*282 _0236_
*283 _0237_
*284 _0238_
*285 _0239_
*286 _0240_
*287 _0241_
*288 _0242_
*289 _0243_
*290 _0244_
*291 _0245_
*292 _0246_
*293 _0247_
*294 _0248_
*295 _0249_
*296 _0250_
*297 _0251_
*298 _0252_
*299 _0253_
*300 _0254_
*301 _0255_
*302 _0256_
*303 _0257_
*304 _0258_
*305 _0259_
*306 _0260_
*307 _0261_
*308 _0262_
*309 _0263_
*310 _0264_
*311 _0265_
*312 _0266_
*313 _0267_
*314 _0268_
*315 _0269_
*316 _0270_
*317 _0271_
*318 _0272_
*319 _0273_
*320 _0274_
*321 _0275_
*322 _0276_
*323 _0277_
*324 _0278_
*325 _0279_
*326 _0280_
*327 _0281_
*328 _0282_
*329 _0283_
*330 _0284_
*331 _0285_
*332 _0286_
*333 _0287_
*334 _0288_
*335 _0289_
*336 _0290_
*337 _0291_
*338 _0292_
*339 _0293_
*340 _0294_
*341 _0295_
*342 _0296_
*343 _0297_
*344 _0298_
*345 _0299_
*346 _0300_
*347 _0301_
*348 _0302_
*349 _0303_
*350 _0304_
*351 _0305_
*352 _0306_
*353 _0307_
*354 _0308_
*355 _0309_
*356 _0310_
*357 _0311_
*358 _0312_
*359 _0313_
*360 _0314_
*361 _0315_
*362 _0316_
*363 _0317_
*364 _0318_
*365 _0319_
*366 _0320_
*367 _0321_
*368 _0322_
*369 _0323_
*370 _0324_
*371 _0325_
*372 _0326_
*373 _0327_
*374 _0328_
*375 _0329_
*376 _0330_
*377 _0331_
*378 _0332_
*379 _0333_
*380 _0334_
*381 _0335_
*382 _0336_
*383 _0337_
*384 _0338_
*385 _0339_
*386 _0340_
*387 _0341_
*388 _0342_
*389 _0343_
*390 _0344_
*391 _0345_
*392 _0346_
*393 _0347_
*394 _0348_
*395 _0349_
*396 _0350_
*397 _0351_
*398 _0352_
*399 _0353_
*400 _0354_
*401 _0355_
*402 _0356_
*403 _0357_
*404 _0358_
*405 _0359_
*406 _0360_
*407 _0361_
*408 _0362_
*409 _0363_
*410 _0364_
*411 _0365_
*412 _0366_
*413 _0367_
*414 _0368_
*415 _0369_
*416 _0370_
*417 _0371_
*418 _0372_
*419 _0373_
*420 _0374_
*421 _0375_
*422 _0376_
*423 _0377_
*424 _0378_
*425 _0379_
*426 _0380_
*427 _0381_
*428 _0382_
*429 _0383_
*430 _0384_
*431 _0385_
*432 _0386_
*433 _0387_
*434 _0388_
*435 _0389_
*436 _0390_
*437 _0391_
*438 _0392_
*439 _0393_
*440 _0394_
*441 _0395_
*442 _0396_
*443 _0397_
*444 _0398_
*445 _0399_
*446 _0400_
*447 _0401_
*448 _0402_
*449 _0403_
*450 _0404_
*451 _0405_
*452 _0406_
*453 _0407_
*454 _0408_
*455 _0409_
*456 _0410_
*457 _0411_
*458 _0412_
*459 _0413_
*460 _0414_
*461 _0415_
*462 _0416_
*463 _0417_
*464 _0418_
*465 _0419_
*466 _0420_
*467 _0421_
*468 _0422_
*469 _0423_
*470 _0424_
*471 _0425_
*472 _0426_
*473 _0427_
*474 _0428_
*475 _0429_
*476 _0430_
*477 _0431_
*478 _0432_
*479 _0433_
*480 _0434_
*481 _0435_
*482 _0436_
*483 _0437_
*484 _0438_
*485 _0439_
*486 _0440_
*487 _0441_
*488 _0442_
*489 _0443_
*490 _0444_
*491 _0445_
*492 _0446_
*493 _0447_
*494 _0448_
*495 _0449_
*496 _0450_
*497 _0451_
*498 _0452_
*499 _0453_
*500 _0454_
*501 _0455_
*502 _0456_
*503 _0457_
*504 _0458_
*505 _0459_
*506 _0460_
*507 _0461_
*508 _0462_
*509 _0463_
*510 _0464_
*511 _0465_
*512 _0466_
*513 _0467_
*514 _0468_
*515 _0469_
*516 _0470_
*517 _0471_
*518 _0472_
*519 _0473_
*520 _0474_
*521 _0475_
*522 _0476_
*523 _0477_
*524 _0478_
*525 _0479_
*526 _0480_
*527 _0481_
*528 _0482_
*529 _0483_
*530 _0484_
*531 _0485_
*532 _0486_
*533 _0487_
*534 _0488_
*535 _0489_
*536 _0490_
*537 _0491_
*538 _0492_
*539 _0493_
*540 _0494_
*541 _0495_
*542 _0496_
*543 _0497_
*544 _0498_
*545 _0499_
*546 _0500_
*547 _0501_
*548 _0502_
*549 _0503_
*550 _0504_
*551 _0505_
*552 _0506_
*553 _0507_
*554 _0508_
*555 _0509_
*556 _0510_
*557 _0511_
*558 _0512_
*559 _0513_
*560 _0514_
*561 _0515_
*562 _0516_
*563 _0517_
*564 _0518_
*565 _0519_
*566 _0520_
*567 _0521_
*568 _0522_
*569 _0523_
*570 _0524_
*571 _0525_
*572 _0526_
*573 _0527_
*574 _0528_
*575 _0529_
*576 _0530_
*577 _0531_
*578 _0532_
*579 _0533_
*580 _0534_
*581 _0535_
*582 _0536_
*583 _0537_
*584 _0538_
*585 _0539_
*586 _0540_
*587 _0541_
*588 _0542_
*589 _0543_
*590 _0544_
*591 _0545_
*592 _0546_
*593 _0547_
*594 _0548_
*595 _0549_
*596 _0550_
*597 _0551_
*598 _0552_
*599 _0553_
*600 _0554_
*601 _0555_
*602 _0556_
*603 _0557_
*604 _0558_
*605 _0559_
*606 _0560_
*607 _0561_
*608 _0562_
*609 _0563_
*610 _0564_
*611 _0565_
*612 _0566_
*613 _0567_
*614 _0568_
*615 _0569_
*616 _0570_
*617 _0571_
*618 _0572_
*619 _0573_
*620 _0574_
*621 _0575_
*622 _0576_
*623 _0577_
*624 _0578_
*625 _0579_
*626 _0580_
*627 _0581_
*628 _0582_
*629 _0583_
*630 _0584_
*631 _0585_
*632 _0586_
*633 _0587_
*634 _0588_
*635 _0589_
*636 _0590_
*637 _0591_
*638 _0592_
*639 _0593_
*640 _0594_
*641 _0595_
*642 _0596_
*643 _0597_
*644 _0598_
*645 _0599_
*646 _0600_
*647 _0601_
*648 _0602_
*649 _0603_
*650 _0604_
*651 _0605_
*652 _0606_
*653 _0607_
*654 _0608_
*655 _0609_
*656 _0610_
*657 _0611_
*658 _0612_
*659 _0613_
*660 _0614_
*661 _0615_
*662 _0616_
*663 _0617_
*664 _0618_
*665 _0619_
*666 _0620_
*667 _0621_
*668 _0622_
*669 _0623_
*670 _0624_
*671 _0625_
*672 _0626_
*673 _0627_
*674 _0628_
*675 _0629_
*676 _0630_
*677 _0631_
*678 _0632_
*679 _0633_
*680 _0634_
*681 _0635_
*682 _0636_
*683 _0637_
*684 _0638_
*685 _0639_
*686 _0640_
*687 _0641_
*688 _0642_
*689 _0643_
*690 _0644_
*691 _0645_
*692 _0646_
*693 _0647_
*694 _0648_
*695 _0649_
*696 _0650_
*697 _0651_
*698 _0652_
*699 _0653_
*700 _0654_
*701 _0655_
*702 _0656_
*703 _0657_
*704 _0658_
*705 _0659_
*706 _0660_
*707 _0661_
*708 _0662_
*709 _0663_
*710 _0664_
*711 _0665_
*712 _0666_
*713 _0667_
*714 _0668_
*715 _0669_
*716 _0670_
*717 _0671_
*718 _0672_
*719 _0673_
*720 _0674_
*721 _0675_
*722 _0676_
*723 _0677_
*724 _0678_
*725 _0679_
*726 _0680_
*727 _0681_
*728 _0682_
*729 _0683_
*730 _0684_
*731 _0685_
*732 _0686_
*733 _0687_
*734 _0688_
*735 _0689_
*736 _0690_
*737 _0691_
*738 _0692_
*739 _0693_
*740 _0694_
*741 _0695_
*742 _0696_
*743 _0697_
*744 _0698_
*745 _0699_
*746 _0700_
*747 _0701_
*748 _0702_
*749 _0703_
*750 _0704_
*751 _0705_
*752 _0706_
*753 _0707_
*754 _0708_
*755 _0709_
*756 clknet_0_clk
*757 clknet_4_0_0_clk
*758 clknet_4_10_0_clk
*759 clknet_4_11_0_clk
*760 clknet_4_12_0_clk
*761 clknet_4_13_0_clk
*762 clknet_4_14_0_clk
*763 clknet_4_15_0_clk
*764 clknet_4_1_0_clk
*765 clknet_4_2_0_clk
*766 clknet_4_3_0_clk
*767 clknet_4_4_0_clk
*768 clknet_4_5_0_clk
*769 clknet_4_6_0_clk
*770 clknet_4_7_0_clk
*771 clknet_4_8_0_clk
*772 clknet_4_9_0_clk
*773 net1
*774 net10
*775 net100
*776 net101
*777 net102
*778 net103
*779 net104
*780 net105
*781 net106
*782 net107
*783 net108
*784 net109
*785 net11
*786 net110
*787 net111
*788 net112
*789 net113
*790 net114
*791 net115
*792 net116
*793 net117
*794 net12
*795 net13
*796 net14
*797 net15
*798 net16
*799 net17
*800 net18
*801 net19
*802 net2
*803 net20
*804 net21
*805 net22
*806 net23
*807 net24
*808 net25
*809 net26
*810 net27
*811 net28
*812 net29
*813 net3
*814 net4
*815 net43
*816 net44
*817 net45
*818 net46
*819 net47
*820 net48
*821 net49
*822 net5
*823 net50
*824 net51
*825 net52
*826 net53
*827 net54
*828 net55
*829 net56
*830 net57
*831 net58
*832 net59
*833 net6
*834 net60
*835 net61
*836 net62
*837 net63
*838 net64
*839 net65
*840 net66
*841 net67
*842 net68
*843 net69
*844 net7
*845 net70
*846 net71
*847 net72
*848 net73
*849 net74
*850 net75
*851 net76
*852 net77
*853 net78
*854 net79
*855 net8
*856 net80
*857 net81
*858 net82
*859 net83
*860 net84
*861 net85
*862 net86
*863 net87
*864 net88
*865 net89
*866 net9
*867 net90
*868 net91
*869 net92
*870 net93
*871 net94
*872 net95
*873 net96
*874 net97
*875 net98
*876 net99
*877 pong\.ball_painter\.ball_x\[0\]
*878 pong\.ball_painter\.ball_x\[1\]
*879 pong\.ball_painter\.ball_x\[2\]
*880 pong\.ball_painter\.ball_y\[0\]
*881 pong\.ball_painter\.ball_y\[1\]
*882 pong\.ball_painter\.ball_y\[2\]
*883 pong\.ball_painter\.gt_x0
*884 pong\.ball_painter\.gt_y0
*885 pong\.ball_painter\.hpos\[0\]
*886 pong\.ball_painter\.hpos\[1\]
*887 pong\.ball_painter\.hpos\[2\]
*888 pong\.ball_painter\.hpos\[3\]
*889 pong\.ball_painter\.hpos\[4\]
*890 pong\.ball_painter\.hpos\[5\]
*891 pong\.ball_painter\.hpos\[6\]
*892 pong\.ball_painter\.hpos\[7\]
*893 pong\.ball_painter\.hpos\[8\]
*894 pong\.ball_painter\.hpos\[9\]
*895 pong\.ball_painter\.line_pulse
*896 pong\.ball_painter\.vpos\[0\]
*897 pong\.ball_painter\.vpos\[1\]
*898 pong\.ball_painter\.vpos\[2\]
*899 pong\.ball_painter\.vpos\[3\]
*900 pong\.ball_painter\.vpos\[4\]
*901 pong\.ball_painter\.vpos\[5\]
*902 pong\.ball_painter\.vpos\[6\]
*903 pong\.ball_painter\.vpos\[7\]
*904 pong\.ball_painter\.vpos\[8\]
*905 pong\.ball_painter\.x\[0\]
*906 pong\.ball_painter\.x\[1\]
*907 pong\.ball_painter\.x\[2\]
*908 pong\.ball_painter\.x\[3\]
*909 pong\.ball_painter\.x\[4\]
*910 pong\.ball_painter\.x\[5\]
*911 pong\.ball_painter\.x\[6\]
*912 pong\.ball_painter\.x\[7\]
*913 pong\.ball_painter\.x\[8\]
*914 pong\.ball_painter\.x\[9\]
*915 pong\.ball_painter\.y\[0\]
*916 pong\.ball_painter\.y\[1\]
*917 pong\.ball_painter\.y\[2\]
*918 pong\.ball_painter\.y\[3\]
*919 pong\.ball_painter\.y\[4\]
*920 pong\.ball_painter\.y\[5\]
*921 pong\.ball_painter\.y\[6\]
*922 pong\.ball_painter\.y\[7\]
*923 pong\.ball_painter\.y\[8\]
*924 pong\.game_logic\.ball_state_x\[0\]
*925 pong\.game_logic\.ball_state_y\[0\]
*926 pong\.game_logic\.ball_state_y\[10\]
*927 pong\.game_logic\.game_state
*928 pong\.game_logic\.latched_ball_bottom_collision
*929 pong\.game_logic\.latched_ball_left_collision
*930 pong\.game_logic\.latched_ball_right_collision
*931 pong\.game_logic\.latched_ball_top_collision
*932 pong\.game_logic\.latched_paddle_collision
*933 pong\.game_logic\.latched_paddle_segment\[0\]
*934 pong\.game_logic\.latched_paddle_segment\[1\]
*935 pong\.game_logic\.latched_paddle_segment\[2\]
*936 pong\.game_logic\.next_velocity_x\[0\]
*937 pong\.game_logic\.next_velocity_x\[1\]
*938 pong\.game_logic\.next_velocity_x\[2\]
*939 pong\.game_logic\.next_velocity_x\[3\]
*940 pong\.game_logic\.p1_btn_action
*941 pong\.game_logic\.p1_btn_left
*942 pong\.game_logic\.p1_btn_right
*943 pong\.game_logic\.p1_lives\[0\]
*944 pong\.game_logic\.p1_lives\[1\]
*945 pong\.game_logic\.p1_paddle_state_x\[0\]
*946 pong\.game_logic\.p1_paddle_state_x\[1\]
*947 pong\.game_logic\.p1_paddle_state_x\[2\]
*948 pong\.game_logic\.p1_paddle_state_x\[3\]
*949 pong\.game_logic\.p1_paddle_state_x\[4\]
*950 pong\.game_logic\.p1_paddle_state_x\[5\]
*951 pong\.game_logic\.p1_paddle_state_x\[6\]
*952 pong\.game_logic\.p1_paddle_state_x\[7\]
*953 pong\.game_logic\.p1_paddle_state_x\[8\]
*954 pong\.game_logic\.p1_paddle_state_x\[9\]
*955 pong\.game_logic\.p2_btn_action
*956 pong\.game_logic\.p2_btn_left
*957 pong\.game_logic\.p2_btn_right
*958 pong\.game_logic\.p2_lives\[0\]
*959 pong\.game_logic\.p2_lives\[1\]
*960 pong\.game_logic\.p2_paddle_state_x\[0\]
*961 pong\.game_logic\.p2_paddle_state_x\[1\]
*962 pong\.game_logic\.p2_paddle_state_x\[2\]
*963 pong\.game_logic\.p2_paddle_state_x\[3\]
*964 pong\.game_logic\.p2_paddle_state_x\[4\]
*965 pong\.game_logic\.p2_paddle_state_x\[5\]
*966 pong\.game_logic\.p2_paddle_state_x\[6\]
*967 pong\.game_logic\.p2_paddle_state_x\[7\]
*968 pong\.game_logic\.p2_paddle_state_x\[8\]
*969 pong\.game_logic\.p2_paddle_state_x\[9\]
*970 pong\.game_logic\.velocity_x\[0\]
*971 pong\.game_logic\.velocity_x\[1\]
*972 pong\.game_logic\.velocity_x\[2\]
*973 pong\.game_logic\.velocity_x\[3\]
*974 pong\.game_logic\.velocity_y\[0\]
*975 pong\.game_logic\.velocity_y\[1\]
*976 pong\.game_logic\.velocity_y\[2\]
*977 pong\.game_logic\.velocity_y\[3\]
*978 pong\.hblank
*979 pong\.p1_btn_left_sync\.reg1
*980 pong\.p1_btn_right_sync\.reg1
*981 pong\.p1_btn_select_sync\.reg1
*982 pong\.p1_lives_painter\.hactive
*983 pong\.p1_lives_painter\.in_lives_row
*984 pong\.p1_lives_painter\.in_lives_y
*985 pong\.p1_lives_painter\.lives_cntr\[0\]
*986 pong\.p1_lives_painter\.lives_cntr\[1\]
*987 pong\.p1_lives_painter\.lives_x\[0\]
*988 pong\.p1_lives_painter\.lives_x\[1\]
*989 pong\.p1_lives_painter\.lives_x\[2\]
*990 pong\.p1_lives_painter\.lives_x\[3\]
*991 pong\.p1_lives_painter\.lives_x\[4\]
*992 pong\.p1_paddle_painter\.in_paddle_x
*993 pong\.p1_paddle_painter\.in_paddle_y
*994 pong\.p1_paddle_painter\.paddle_segment\[0\]
*995 pong\.p1_paddle_painter\.paddle_segment\[1\]
*996 pong\.p1_paddle_painter\.paddle_segment\[2\]
*997 pong\.p1_paddle_painter\.paddle_segment_x\[0\]
*998 pong\.p1_paddle_painter\.paddle_segment_x\[1\]
*999 pong\.p1_paddle_painter\.paddle_segment_x\[2\]
*1000 pong\.p2_btn_left_sync\.reg1
*1001 pong\.p2_btn_right_sync\.reg1
*1002 pong\.p2_btn_select_sync\.reg1
*1003 pong\.p2_lives_painter\.in_lives_row
*1004 pong\.p2_lives_painter\.in_lives_y
*1005 pong\.p2_lives_painter\.lives_cntr\[0\]
*1006 pong\.p2_lives_painter\.lives_cntr\[1\]
*1007 pong\.p2_lives_painter\.lives_x\[0\]
*1008 pong\.p2_lives_painter\.lives_x\[1\]
*1009 pong\.p2_lives_painter\.lives_x\[2\]
*1010 pong\.p2_lives_painter\.lives_x\[3\]
*1011 pong\.p2_lives_painter\.lives_x\[4\]
*1012 pong\.p2_paddle_painter\.in_paddle_x
*1013 pong\.p2_paddle_painter\.in_paddle_y
*1014 pong\.p2_paddle_painter\.paddle_segment\[0\]
*1015 pong\.p2_paddle_painter\.paddle_segment\[1\]
*1016 pong\.p2_paddle_painter\.paddle_segment\[2\]
*1017 pong\.p2_paddle_painter\.paddle_segment_x\[0\]
*1018 pong\.p2_paddle_painter\.paddle_segment_x\[1\]
*1019 pong\.p2_paddle_painter\.paddle_segment_x\[2\]
*1020 pong\.sound_gen\.high_beep_wave
*1021 pong\.sound_gen\.high_counter\[0\]
*1022 pong\.sound_gen\.high_counter\[1\]
*1023 pong\.sound_gen\.high_counter\[2\]
*1024 pong\.sound_gen\.high_en
*1025 pong\.sound_gen\.low_beep_wave
*1026 pong\.sound_gen\.low_counter\[0\]
*1027 pong\.sound_gen\.low_counter\[1\]
*1028 pong\.sound_gen\.low_counter\[2\]
*1029 pong\.sound_gen\.low_en
*1030 pong\.sound_gen\.sound
*1031 pong\.sound_gen\.sound_counter\[0\]
*1032 pong\.sound_gen\.sound_counter\[1\]
*1033 pong\.sound_gen\.sound_counter\[2\]
*1034 pong\.sound_gen\.sound_counter\[3\]
*1035 pong\.vblank
*1036 pong\.vga_hsync
*1037 pong\.vga_timing\.vactive
*1038 pong\.vga_timing\.vert_counter\[9\]
*1039 pong\.vga_timing\.vsync
*1040 FILLER_0_0_107
*1041 FILLER_0_0_111
*1042 FILLER_0_0_113
*1043 FILLER_0_0_119
*1044 FILLER_0_0_141
*1045 FILLER_0_0_15
*1046 FILLER_0_0_153
*1047 FILLER_0_0_165
*1048 FILLER_0_0_169
*1049 FILLER_0_0_173
*1050 FILLER_0_0_182
*1051 FILLER_0_0_194
*1052 FILLER_0_0_197
*1053 FILLER_0_0_209
*1054 FILLER_0_0_221
*1055 FILLER_0_0_225
*1056 FILLER_0_0_237
*1057 FILLER_0_0_241
*1058 FILLER_0_0_248
*1059 FILLER_0_0_253
*1060 FILLER_0_0_265
*1061 FILLER_0_0_27
*1062 FILLER_0_0_277
*1063 FILLER_0_0_281
*1064 FILLER_0_0_29
*1065 FILLER_0_0_296
*1066 FILLER_0_0_3
*1067 FILLER_0_0_309
*1068 FILLER_0_0_321
*1069 FILLER_0_0_333
*1070 FILLER_0_0_337
*1071 FILLER_0_0_349
*1072 FILLER_0_0_41
*1073 FILLER_0_0_53
*1074 FILLER_0_0_57
*1075 FILLER_0_0_69
*1076 FILLER_0_0_81
*1077 FILLER_0_0_85
*1078 FILLER_0_0_95
*1079 FILLER_0_10_134
*1080 FILLER_0_10_141
*1081 FILLER_0_10_150
*1082 FILLER_0_10_154
*1083 FILLER_0_10_192
*1084 FILLER_0_10_197
*1085 FILLER_0_10_205
*1086 FILLER_0_10_215
*1087 FILLER_0_10_227
*1088 FILLER_0_10_242
*1089 FILLER_0_10_251
*1090 FILLER_0_10_263
*1091 FILLER_0_10_275
*1092 FILLER_0_10_29
*1093 FILLER_0_10_3
*1094 FILLER_0_10_306
*1095 FILLER_0_10_309
*1096 FILLER_0_10_345
*1097 FILLER_0_10_52
*1098 FILLER_0_10_65
*1099 FILLER_0_10_73
*1100 FILLER_0_11_105
*1101 FILLER_0_11_111
*1102 FILLER_0_11_113
*1103 FILLER_0_11_143
*1104 FILLER_0_11_15
*1105 FILLER_0_11_155
*1106 FILLER_0_11_163
*1107 FILLER_0_11_183
*1108 FILLER_0_11_195
*1109 FILLER_0_11_201
*1110 FILLER_0_11_223
*1111 FILLER_0_11_225
*1112 FILLER_0_11_233
*1113 FILLER_0_11_263
*1114 FILLER_0_11_27
*1115 FILLER_0_11_275
*1116 FILLER_0_11_279
*1117 FILLER_0_11_281
*1118 FILLER_0_11_289
*1119 FILLER_0_11_3
*1120 FILLER_0_11_300
*1121 FILLER_0_11_304
*1122 FILLER_0_11_337
*1123 FILLER_0_11_349
*1124 FILLER_0_11_35
*1125 FILLER_0_11_41
*1126 FILLER_0_11_55
*1127 FILLER_0_11_57
*1128 FILLER_0_11_69
*1129 FILLER_0_11_73
*1130 FILLER_0_11_93
*1131 FILLER_0_12_102
*1132 FILLER_0_12_108
*1133 FILLER_0_12_144
*1134 FILLER_0_12_152
*1135 FILLER_0_12_180
*1136 FILLER_0_12_195
*1137 FILLER_0_12_197
*1138 FILLER_0_12_208
*1139 FILLER_0_12_224
*1140 FILLER_0_12_230
*1141 FILLER_0_12_248
*1142 FILLER_0_12_253
*1143 FILLER_0_12_274
*1144 FILLER_0_12_286
*1145 FILLER_0_12_29
*1146 FILLER_0_12_296
*1147 FILLER_0_12_3
*1148 FILLER_0_12_309
*1149 FILLER_0_12_33
*1150 FILLER_0_12_350
*1151 FILLER_0_12_37
*1152 FILLER_0_12_45
*1153 FILLER_0_12_7
*1154 FILLER_0_12_70
*1155 FILLER_0_12_82
*1156 FILLER_0_13_109
*1157 FILLER_0_13_113
*1158 FILLER_0_13_138
*1159 FILLER_0_13_142
*1160 FILLER_0_13_151
*1161 FILLER_0_13_165
*1162 FILLER_0_13_175
*1163 FILLER_0_13_184
*1164 FILLER_0_13_196
*1165 FILLER_0_13_221
*1166 FILLER_0_13_252
*1167 FILLER_0_13_275
*1168 FILLER_0_13_279
*1169 FILLER_0_13_281
*1170 FILLER_0_13_299
*1171 FILLER_0_13_3
*1172 FILLER_0_13_318
*1173 FILLER_0_13_325
*1174 FILLER_0_13_334
*1175 FILLER_0_13_34
*1176 FILLER_0_13_347
*1177 FILLER_0_13_54
*1178 FILLER_0_13_65
*1179 FILLER_0_13_97
*1180 FILLER_0_14_124
*1181 FILLER_0_14_136
*1182 FILLER_0_14_141
*1183 FILLER_0_14_172
*1184 FILLER_0_14_184
*1185 FILLER_0_14_200
*1186 FILLER_0_14_208
*1187 FILLER_0_14_220
*1188 FILLER_0_14_228
*1189 FILLER_0_14_259
*1190 FILLER_0_14_271
*1191 FILLER_0_14_3
*1192 FILLER_0_14_305
*1193 FILLER_0_14_309
*1194 FILLER_0_14_324
*1195 FILLER_0_14_346
*1196 FILLER_0_14_35
*1197 FILLER_0_14_350
*1198 FILLER_0_14_52
*1199 FILLER_0_14_66
*1200 FILLER_0_14_7
*1201 FILLER_0_14_74
*1202 FILLER_0_14_85
*1203 FILLER_0_14_97
*1204 FILLER_0_15_106
*1205 FILLER_0_15_113
*1206 FILLER_0_15_126
*1207 FILLER_0_15_138
*1208 FILLER_0_15_166
*1209 FILLER_0_15_179
*1210 FILLER_0_15_187
*1211 FILLER_0_15_209
*1212 FILLER_0_15_221
*1213 FILLER_0_15_225
*1214 FILLER_0_15_237
*1215 FILLER_0_15_249
*1216 FILLER_0_15_261
*1217 FILLER_0_15_273
*1218 FILLER_0_15_279
*1219 FILLER_0_15_291
*1220 FILLER_0_15_3
*1221 FILLER_0_15_307
*1222 FILLER_0_15_341
*1223 FILLER_0_15_349
*1224 FILLER_0_15_39
*1225 FILLER_0_15_47
*1226 FILLER_0_15_80
*1227 FILLER_0_15_92
*1228 FILLER_0_15_98
*1229 FILLER_0_16_137
*1230 FILLER_0_16_141
*1231 FILLER_0_16_15
*1232 FILLER_0_16_178
*1233 FILLER_0_16_190
*1234 FILLER_0_16_197
*1235 FILLER_0_16_212
*1236 FILLER_0_16_216
*1237 FILLER_0_16_249
*1238 FILLER_0_16_25
*1239 FILLER_0_16_253
*1240 FILLER_0_16_261
*1241 FILLER_0_16_29
*1242 FILLER_0_16_296
*1243 FILLER_0_16_3
*1244 FILLER_0_16_309
*1245 FILLER_0_16_325
*1246 FILLER_0_16_333
*1247 FILLER_0_16_345
*1248 FILLER_0_16_41
*1249 FILLER_0_16_75
*1250 FILLER_0_16_82
*1251 FILLER_0_17_104
*1252 FILLER_0_17_113
*1253 FILLER_0_17_125
*1254 FILLER_0_17_137
*1255 FILLER_0_17_167
*1256 FILLER_0_17_177
*1257 FILLER_0_17_181
*1258 FILLER_0_17_208
*1259 FILLER_0_17_214
*1260 FILLER_0_17_246
*1261 FILLER_0_17_258
*1262 FILLER_0_17_279
*1263 FILLER_0_17_284
*1264 FILLER_0_17_296
*1265 FILLER_0_17_3
*1266 FILLER_0_17_30
*1267 FILLER_0_17_305
*1268 FILLER_0_17_334
*1269 FILLER_0_17_347
*1270 FILLER_0_17_43
*1271 FILLER_0_17_55
*1272 FILLER_0_17_57
*1273 FILLER_0_17_72
*1274 FILLER_0_17_80
*1275 FILLER_0_18_119
*1276 FILLER_0_18_131
*1277 FILLER_0_18_139
*1278 FILLER_0_18_141
*1279 FILLER_0_18_145
*1280 FILLER_0_18_149
*1281 FILLER_0_18_153
*1282 FILLER_0_18_163
*1283 FILLER_0_18_176
*1284 FILLER_0_18_194
*1285 FILLER_0_18_197
*1286 FILLER_0_18_209
*1287 FILLER_0_18_217
*1288 FILLER_0_18_222
*1289 FILLER_0_18_233
*1290 FILLER_0_18_243
*1291 FILLER_0_18_251
*1292 FILLER_0_18_253
*1293 FILLER_0_18_257
*1294 FILLER_0_18_261
*1295 FILLER_0_18_270
*1296 FILLER_0_18_289
*1297 FILLER_0_18_3
*1298 FILLER_0_18_301
*1299 FILLER_0_18_343
*1300 FILLER_0_18_41
*1301 FILLER_0_18_51
*1302 FILLER_0_18_63
*1303 FILLER_0_18_76
*1304 FILLER_0_18_85
*1305 FILLER_0_18_99
*1306 FILLER_0_19_108
*1307 FILLER_0_19_11
*1308 FILLER_0_19_119
*1309 FILLER_0_19_129
*1310 FILLER_0_19_141
*1311 FILLER_0_19_149
*1312 FILLER_0_19_159
*1313 FILLER_0_19_169
*1314 FILLER_0_19_173
*1315 FILLER_0_19_197
*1316 FILLER_0_19_209
*1317 FILLER_0_19_225
*1318 FILLER_0_19_230
*1319 FILLER_0_19_240
*1320 FILLER_0_19_252
*1321 FILLER_0_19_260
*1322 FILLER_0_19_279
*1323 FILLER_0_19_292
*1324 FILLER_0_19_3
*1325 FILLER_0_19_304
*1326 FILLER_0_19_335
*1327 FILLER_0_19_350
*1328 FILLER_0_19_47
*1329 FILLER_0_19_55
*1330 FILLER_0_19_65
*1331 FILLER_0_19_77
*1332 FILLER_0_19_94
*1333 FILLER_0_1_11
*1334 FILLER_0_1_113
*1335 FILLER_0_1_125
*1336 FILLER_0_1_147
*1337 FILLER_0_1_159
*1338 FILLER_0_1_167
*1339 FILLER_0_1_17
*1340 FILLER_0_1_190
*1341 FILLER_0_1_198
*1342 FILLER_0_1_235
*1343 FILLER_0_1_246
*1344 FILLER_0_1_268
*1345 FILLER_0_1_276
*1346 FILLER_0_1_281
*1347 FILLER_0_1_3
*1348 FILLER_0_1_306
*1349 FILLER_0_1_319
*1350 FILLER_0_1_327
*1351 FILLER_0_1_346
*1352 FILLER_0_1_350
*1353 FILLER_0_1_36
*1354 FILLER_0_1_67
*1355 FILLER_0_20_141
*1356 FILLER_0_20_15
*1357 FILLER_0_20_154
*1358 FILLER_0_20_181
*1359 FILLER_0_20_192
*1360 FILLER_0_20_22
*1361 FILLER_0_20_244
*1362 FILLER_0_20_253
*1363 FILLER_0_20_278
*1364 FILLER_0_20_284
*1365 FILLER_0_20_29
*1366 FILLER_0_20_3
*1367 FILLER_0_20_306
*1368 FILLER_0_20_309
*1369 FILLER_0_20_313
*1370 FILLER_0_20_327
*1371 FILLER_0_20_348
*1372 FILLER_0_20_41
*1373 FILLER_0_20_79
*1374 FILLER_0_20_83
*1375 FILLER_0_20_85
*1376 FILLER_0_21_108
*1377 FILLER_0_21_113
*1378 FILLER_0_21_124
*1379 FILLER_0_21_136
*1380 FILLER_0_21_15
*1381 FILLER_0_21_162
*1382 FILLER_0_21_169
*1383 FILLER_0_21_197
*1384 FILLER_0_21_209
*1385 FILLER_0_21_223
*1386 FILLER_0_21_237
*1387 FILLER_0_21_249
*1388 FILLER_0_21_27
*1389 FILLER_0_21_287
*1390 FILLER_0_21_299
*1391 FILLER_0_21_3
*1392 FILLER_0_21_311
*1393 FILLER_0_21_323
*1394 FILLER_0_21_335
*1395 FILLER_0_21_337
*1396 FILLER_0_21_349
*1397 FILLER_0_21_39
*1398 FILLER_0_21_47
*1399 FILLER_0_21_51
*1400 FILLER_0_21_55
*1401 FILLER_0_21_57
*1402 FILLER_0_21_61
*1403 FILLER_0_21_76
*1404 FILLER_0_22_118
*1405 FILLER_0_22_130
*1406 FILLER_0_22_138
*1407 FILLER_0_22_141
*1408 FILLER_0_22_161
*1409 FILLER_0_22_173
*1410 FILLER_0_22_181
*1411 FILLER_0_22_191
*1412 FILLER_0_22_195
*1413 FILLER_0_22_197
*1414 FILLER_0_22_241
*1415 FILLER_0_22_249
*1416 FILLER_0_22_25
*1417 FILLER_0_22_256
*1418 FILLER_0_22_265
*1419 FILLER_0_22_278
*1420 FILLER_0_22_290
*1421 FILLER_0_22_3
*1422 FILLER_0_22_302
*1423 FILLER_0_22_330
*1424 FILLER_0_22_342
*1425 FILLER_0_22_350
*1426 FILLER_0_22_40
*1427 FILLER_0_22_48
*1428 FILLER_0_22_56
*1429 FILLER_0_22_80
*1430 FILLER_0_22_85
*1431 FILLER_0_22_98
*1432 FILLER_0_23_101
*1433 FILLER_0_23_120
*1434 FILLER_0_23_142
*1435 FILLER_0_23_154
*1436 FILLER_0_23_162
*1437 FILLER_0_23_201
*1438 FILLER_0_23_209
*1439 FILLER_0_23_218
*1440 FILLER_0_23_234
*1441 FILLER_0_23_246
*1442 FILLER_0_23_258
*1443 FILLER_0_23_266
*1444 FILLER_0_23_277
*1445 FILLER_0_23_290
*1446 FILLER_0_23_302
*1447 FILLER_0_23_307
*1448 FILLER_0_23_337
*1449 FILLER_0_23_349
*1450 FILLER_0_23_46
*1451 FILLER_0_23_73
*1452 FILLER_0_23_85
*1453 FILLER_0_23_93
*1454 FILLER_0_24_117
*1455 FILLER_0_24_147
*1456 FILLER_0_24_159
*1457 FILLER_0_24_171
*1458 FILLER_0_24_204
*1459 FILLER_0_24_212
*1460 FILLER_0_24_226
*1461 FILLER_0_24_24
*1462 FILLER_0_24_265
*1463 FILLER_0_24_270
*1464 FILLER_0_24_284
*1465 FILLER_0_24_29
*1466 FILLER_0_24_296
*1467 FILLER_0_24_3
*1468 FILLER_0_24_300
*1469 FILLER_0_24_349
*1470 FILLER_0_24_49
*1471 FILLER_0_24_53
*1472 FILLER_0_24_82
*1473 FILLER_0_24_85
*1474 FILLER_0_25_133
*1475 FILLER_0_25_15
*1476 FILLER_0_25_157
*1477 FILLER_0_25_165
*1478 FILLER_0_25_169
*1479 FILLER_0_25_181
*1480 FILLER_0_25_193
*1481 FILLER_0_25_205
*1482 FILLER_0_25_233
*1483 FILLER_0_25_245
*1484 FILLER_0_25_257
*1485 FILLER_0_25_27
*1486 FILLER_0_25_289
*1487 FILLER_0_25_293
*1488 FILLER_0_25_3
*1489 FILLER_0_25_335
*1490 FILLER_0_25_340
*1491 FILLER_0_25_348
*1492 FILLER_0_25_39
*1493 FILLER_0_25_51
*1494 FILLER_0_25_55
*1495 FILLER_0_25_57
*1496 FILLER_0_25_69
*1497 FILLER_0_25_77
*1498 FILLER_0_25_99
*1499 FILLER_0_26_101
*1500 FILLER_0_26_112
*1501 FILLER_0_26_118
*1502 FILLER_0_26_136
*1503 FILLER_0_26_141
*1504 FILLER_0_26_15
*1505 FILLER_0_26_153
*1506 FILLER_0_26_175
*1507 FILLER_0_26_186
*1508 FILLER_0_26_194
*1509 FILLER_0_26_197
*1510 FILLER_0_26_209
*1511 FILLER_0_26_217
*1512 FILLER_0_26_237
*1513 FILLER_0_26_24
*1514 FILLER_0_26_253
*1515 FILLER_0_26_265
*1516 FILLER_0_26_275
*1517 FILLER_0_26_29
*1518 FILLER_0_26_292
*1519 FILLER_0_26_3
*1520 FILLER_0_26_304
*1521 FILLER_0_26_309
*1522 FILLER_0_26_340
*1523 FILLER_0_26_347
*1524 FILLER_0_26_45
*1525 FILLER_0_26_56
*1526 FILLER_0_26_64
*1527 FILLER_0_26_78
*1528 FILLER_0_26_85
*1529 FILLER_0_27_100
*1530 FILLER_0_27_110
*1531 FILLER_0_27_113
*1532 FILLER_0_27_132
*1533 FILLER_0_27_140
*1534 FILLER_0_27_152
*1535 FILLER_0_27_169
*1536 FILLER_0_27_192
*1537 FILLER_0_27_204
*1538 FILLER_0_27_209
*1539 FILLER_0_27_264
*1540 FILLER_0_27_270
*1541 FILLER_0_27_286
*1542 FILLER_0_27_298
*1543 FILLER_0_27_3
*1544 FILLER_0_27_31
*1545 FILLER_0_27_310
*1546 FILLER_0_27_333
*1547 FILLER_0_27_348
*1548 FILLER_0_27_52
*1549 FILLER_0_27_77
*1550 FILLER_0_28_137
*1551 FILLER_0_28_141
*1552 FILLER_0_28_145
*1553 FILLER_0_28_172
*1554 FILLER_0_28_185
*1555 FILLER_0_28_193
*1556 FILLER_0_28_236
*1557 FILLER_0_28_248
*1558 FILLER_0_28_253
*1559 FILLER_0_28_263
*1560 FILLER_0_28_273
*1561 FILLER_0_28_283
*1562 FILLER_0_28_295
*1563 FILLER_0_28_3
*1564 FILLER_0_28_317
*1565 FILLER_0_28_32
*1566 FILLER_0_28_349
*1567 FILLER_0_28_44
*1568 FILLER_0_28_63
*1569 FILLER_0_28_7
*1570 FILLER_0_28_74
*1571 FILLER_0_28_82
*1572 FILLER_0_28_85
*1573 FILLER_0_28_89
*1574 FILLER_0_28_98
*1575 FILLER_0_29_102
*1576 FILLER_0_29_113
*1577 FILLER_0_29_122
*1578 FILLER_0_29_147
*1579 FILLER_0_29_151
*1580 FILLER_0_29_165
*1581 FILLER_0_29_169
*1582 FILLER_0_29_181
*1583 FILLER_0_29_199
*1584 FILLER_0_29_235
*1585 FILLER_0_29_247
*1586 FILLER_0_29_253
*1587 FILLER_0_29_290
*1588 FILLER_0_29_296
*1589 FILLER_0_29_3
*1590 FILLER_0_29_348
*1591 FILLER_0_29_36
*1592 FILLER_0_29_48
*1593 FILLER_0_29_57
*1594 FILLER_0_29_69
*1595 FILLER_0_2_110
*1596 FILLER_0_2_118
*1597 FILLER_0_2_139
*1598 FILLER_0_2_153
*1599 FILLER_0_2_191
*1600 FILLER_0_2_195
*1601 FILLER_0_2_204
*1602 FILLER_0_2_26
*1603 FILLER_0_2_260
*1604 FILLER_0_2_270
*1605 FILLER_0_2_282
*1606 FILLER_0_2_3
*1607 FILLER_0_2_307
*1608 FILLER_0_2_309
*1609 FILLER_0_2_318
*1610 FILLER_0_2_348
*1611 FILLER_0_2_61
*1612 FILLER_0_2_83
*1613 FILLER_0_30_128
*1614 FILLER_0_30_141
*1615 FILLER_0_30_179
*1616 FILLER_0_30_191
*1617 FILLER_0_30_239
*1618 FILLER_0_30_244
*1619 FILLER_0_30_253
*1620 FILLER_0_30_280
*1621 FILLER_0_30_29
*1622 FILLER_0_30_292
*1623 FILLER_0_30_3
*1624 FILLER_0_30_304
*1625 FILLER_0_30_339
*1626 FILLER_0_30_41
*1627 FILLER_0_30_69
*1628 FILLER_0_30_7