*SPEF "ieee 1481-1999"
*DESIGN "tt_um_wokwi_375310871188385793"
*DATE "11:11:11 Fri 11 11, 1111"
*VENDOR "OpenRCX"
*PROGRAM "Parallel Extraction"
*VERSION "1.0"
*DESIGN_FLOW "NAME_SCOPE LOCAL" "PIN_CAP NONE"
*DIVIDER /
*DELIMITER :
*BUS_DELIMITER []
*T_UNIT 1 NS
*C_UNIT 1 PF
*R_UNIT 1 OHM
*L_UNIT 1 HENRY

*NAME_MAP
*3 clk
*4 ena
*5 rst_n
*6 ui_in[0]
*7 ui_in[1]
*8 ui_in[2]
*9 ui_in[3]
*10 ui_in[4]
*11 ui_in[5]
*12 ui_in[6]
*13 ui_in[7]
*14 uio_in[0]
*15 uio_in[1]
*16 uio_in[2]
*17 uio_in[3]
*18 uio_in[4]
*19 uio_in[5]
*20 uio_in[6]
*21 uio_in[7]
*22 net16
*23 net17
*24 net18
*25 net19
*26 net20
*27 net12
*28 net13
*29 uio_oe[7]
*30 uio_out[0]
*31 uio_out[1]
*32 uio_out[2]
*33 uio_out[3]
*34 uio_out[4]
*35 net14
*36 net15
*37 uio_out[7]
*38 uo_out[0]
*39 uo_out[1]
*40 uo_out[2]
*41 uo_out[3]
*42 uo_out[4]
*43 uo_out[5]
*44 uo_out[6]
*45 uo_out[7]
*46 _00_
*47 _01_
*48 _02_
*49 _03_
*50 _04_
*51 _05_
*52 _06_
*53 _07_
*54 _08_
*55 _09_
*56 flop1\.clk
*57 flop1\.q
*58 flop10\.clk
*59 flop10\.q
*60 flop11\.d
*61 flop11\.q
*62 flop12\.d
*63 flop12\.q
*64 flop13\.d
*65 flop13\.q
*66 flop2\.q
*67 flop5\.q
*68 flop7\.q
*69 flop9\.q
*70 net1
*71 net10
*72 net11
*73 net2
*74 net21
*75 net3
*76 net4
*77 net5
*78 net6
*79 net7
*80 net8
*81 net9
*82 FILLER_0_0_109
*83 FILLER_0_0_113
*84 FILLER_0_0_125
*85 FILLER_0_0_137
*86 FILLER_0_0_141
*87 FILLER_0_0_15
*88 FILLER_0_0_153
*89 FILLER_0_0_165
*90 FILLER_0_0_169
*91 FILLER_0_0_181
*92 FILLER_0_0_193
*93 FILLER_0_0_197
*94 FILLER_0_0_209
*95 FILLER_0_0_221
*96 FILLER_0_0_225
*97 FILLER_0_0_237
*98 FILLER_0_0_249
*99 FILLER_0_0_253
*100 FILLER_0_0_265
*101 FILLER_0_0_27
*102 FILLER_0_0_277
*103 FILLER_0_0_281
*104 FILLER_0_0_29
*105 FILLER_0_0_293
*106 FILLER_0_0_3
*107 FILLER_0_0_305
*108 FILLER_0_0_309
*109 FILLER_0_0_321
*110 FILLER_0_0_333
*111 FILLER_0_0_337
*112 FILLER_0_0_349
*113 FILLER_0_0_41
*114 FILLER_0_0_53
*115 FILLER_0_0_57
*116 FILLER_0_0_69
*117 FILLER_0_0_81
*118 FILLER_0_0_85
*119 FILLER_0_0_97
*120 FILLER_0_10_109
*121 FILLER_0_10_121
*122 FILLER_0_10_133
*123 FILLER_0_10_139
*124 FILLER_0_10_141
*125 FILLER_0_10_15
*126 FILLER_0_10_153
*127 FILLER_0_10_165
*128 FILLER_0_10_177
*129 FILLER_0_10_189
*130 FILLER_0_10_195
*131 FILLER_0_10_197
*132 FILLER_0_10_209
*133 FILLER_0_10_221
*134 FILLER_0_10_233
*135 FILLER_0_10_245
*136 FILLER_0_10_251
*137 FILLER_0_10_253
*138 FILLER_0_10_265
*139 FILLER_0_10_27
*140 FILLER_0_10_277
*141 FILLER_0_10_289
*142 FILLER_0_10_29
*143 FILLER_0_10_3
*144 FILLER_0_10_301
*145 FILLER_0_10_307
*146 FILLER_0_10_309
*147 FILLER_0_10_321
*148 FILLER_0_10_333
*149 FILLER_0_10_345
*150 FILLER_0_10_41
*151 FILLER_0_10_53
*152 FILLER_0_10_65
*153 FILLER_0_10_77
*154 FILLER_0_10_83
*155 FILLER_0_10_85
*156 FILLER_0_10_97
*157 FILLER_0_11_105
*158 FILLER_0_11_111
*159 FILLER_0_11_113
*160 FILLER_0_11_125
*161 FILLER_0_11_137
*162 FILLER_0_11_149
*163 FILLER_0_11_15
*164 FILLER_0_11_161
*165 FILLER_0_11_167
*166 FILLER_0_11_169
*167 FILLER_0_11_181
*168 FILLER_0_11_193
*169 FILLER_0_11_205
*170 FILLER_0_11_217
*171 FILLER_0_11_223
*172 FILLER_0_11_225
*173 FILLER_0_11_237
*174 FILLER_0_11_249
*175 FILLER_0_11_261
*176 FILLER_0_11_27
*177 FILLER_0_11_273
*178 FILLER_0_11_279
*179 FILLER_0_11_281
*180 FILLER_0_11_293
*181 FILLER_0_11_3
*182 FILLER_0_11_305
*183 FILLER_0_11_317
*184 FILLER_0_11_329
*185 FILLER_0_11_335
*186 FILLER_0_11_337
*187 FILLER_0_11_349
*188 FILLER_0_11_39
*189 FILLER_0_11_51
*190 FILLER_0_11_55
*191 FILLER_0_11_57
*192 FILLER_0_11_69
*193 FILLER_0_11_81
*194 FILLER_0_11_93
*195 FILLER_0_12_109
*196 FILLER_0_12_121
*197 FILLER_0_12_133
*198 FILLER_0_12_139
*199 FILLER_0_12_141
*200 FILLER_0_12_15
*201 FILLER_0_12_153
*202 FILLER_0_12_165
*203 FILLER_0_12_177
*204 FILLER_0_12_189
*205 FILLER_0_12_195
*206 FILLER_0_12_197
*207 FILLER_0_12_209
*208 FILLER_0_12_221
*209 FILLER_0_12_233
*210 FILLER_0_12_245
*211 FILLER_0_12_251
*212 FILLER_0_12_253
*213 FILLER_0_12_265
*214 FILLER_0_12_27
*215 FILLER_0_12_277
*216 FILLER_0_12_289
*217 FILLER_0_12_29
*218 FILLER_0_12_3
*219 FILLER_0_12_301
*220 FILLER_0_12_307
*221 FILLER_0_12_309
*222 FILLER_0_12_321
*223 FILLER_0_12_333
*224 FILLER_0_12_345
*225 FILLER_0_12_41
*226 FILLER_0_12_53
*227 FILLER_0_12_65
*228 FILLER_0_12_77
*229 FILLER_0_12_83
*230 FILLER_0_12_85
*231 FILLER_0_12_97
*232 FILLER_0_13_105
*233 FILLER_0_13_111
*234 FILLER_0_13_113
*235 FILLER_0_13_125
*236 FILLER_0_13_137
*237 FILLER_0_13_149
*238 FILLER_0_13_15
*239 FILLER_0_13_161
*240 FILLER_0_13_167
*241 FILLER_0_13_169
*242 FILLER_0_13_181
*243 FILLER_0_13_193
*244 FILLER_0_13_205
*245 FILLER_0_13_217
*246 FILLER_0_13_223
*247 FILLER_0_13_225
*248 FILLER_0_13_237
*249 FILLER_0_13_249
*250 FILLER_0_13_261
*251 FILLER_0_13_27
*252 FILLER_0_13_273
*253 FILLER_0_13_279
*254 FILLER_0_13_281
*255 FILLER_0_13_293
*256 FILLER_0_13_3
*257 FILLER_0_13_305
*258 FILLER_0_13_317
*259 FILLER_0_13_329
*260 FILLER_0_13_335
*261 FILLER_0_13_337
*262 FILLER_0_13_349
*263 FILLER_0_13_39
*264 FILLER_0_13_51
*265 FILLER_0_13_55
*266 FILLER_0_13_57
*267 FILLER_0_13_69
*268 FILLER_0_13_81
*269 FILLER_0_13_93
*270 FILLER_0_14_109
*271 FILLER_0_14_121
*272 FILLER_0_14_133
*273 FILLER_0_14_139
*274 FILLER_0_14_141
*275 FILLER_0_14_15
*276 FILLER_0_14_153
*277 FILLER_0_14_165
*278 FILLER_0_14_177
*279 FILLER_0_14_189
*280 FILLER_0_14_195
*281 FILLER_0_14_197
*282 FILLER_0_14_209
*283 FILLER_0_14_221
*284 FILLER_0_14_233
*285 FILLER_0_14_245
*286 FILLER_0_14_251
*287 FILLER_0_14_253
*288 FILLER_0_14_265
*289 FILLER_0_14_27
*290 FILLER_0_14_277
*291 FILLER_0_14_289
*292 FILLER_0_14_29
*293 FILLER_0_14_3
*294 FILLER_0_14_301
*295 FILLER_0_14_307
*296 FILLER_0_14_309
*297 FILLER_0_14_321
*298 FILLER_0_14_333
*299 FILLER_0_14_345
*300 FILLER_0_14_41
*301 FILLER_0_14_53
*302 FILLER_0_14_65
*303 FILLER_0_14_77
*304 FILLER_0_14_83
*305 FILLER_0_14_85
*306 FILLER_0_14_97
*307 FILLER_0_15_105
*308 FILLER_0_15_111
*309 FILLER_0_15_113
*310 FILLER_0_15_125
*311 FILLER_0_15_137
*312 FILLER_0_15_149
*313 FILLER_0_15_15
*314 FILLER_0_15_161
*315 FILLER_0_15_167
*316 FILLER_0_15_169
*317 FILLER_0_15_181
*318 FILLER_0_15_193
*319 FILLER_0_15_205
*320 FILLER_0_15_217
*321 FILLER_0_15_223
*322 FILLER_0_15_225
*323 FILLER_0_15_237
*324 FILLER_0_15_249
*325 FILLER_0_15_261
*326 FILLER_0_15_27
*327 FILLER_0_15_273
*328 FILLER_0_15_279
*329 FILLER_0_15_281
*330 FILLER_0_15_293
*331 FILLER_0_15_3
*332 FILLER_0_15_305
*333 FILLER_0_15_317
*334 FILLER_0_15_329
*335 FILLER_0_15_335
*336 FILLER_0_15_337
*337 FILLER_0_15_349
*338 FILLER_0_15_39
*339 FILLER_0_15_51
*340 FILLER_0_15_55
*341 FILLER_0_15_57
*342 FILLER_0_15_69
*343 FILLER_0_15_81
*344 FILLER_0_15_93
*345 FILLER_0_16_109
*346 FILLER_0_16_121
*347 FILLER_0_16_133
*348 FILLER_0_16_139
*349 FILLER_0_16_141
*350 FILLER_0_16_15
*351 FILLER_0_16_153
*352 FILLER_0_16_165
*353 FILLER_0_16_177
*354 FILLER_0_16_189
*355 FILLER_0_16_195
*356 FILLER_0_16_197
*357 FILLER_0_16_209
*358 FILLER_0_16_221
*359 FILLER_0_16_233
*360 FILLER_0_16_245
*361 FILLER_0_16_251
*362 FILLER_0_16_253
*363 FILLER_0_16_265
*364 FILLER_0_16_27
*365 FILLER_0_16_277
*366 FILLER_0_16_289
*367 FILLER_0_16_29
*368 FILLER_0_16_3
*369 FILLER_0_16_301
*370 FILLER_0_16_307
*371 FILLER_0_16_309
*372 FILLER_0_16_321
*373 FILLER_0_16_333
*374 FILLER_0_16_345
*375 FILLER_0_16_41
*376 FILLER_0_16_53
*377 FILLER_0_16_65
*378 FILLER_0_16_77
*379 FILLER_0_16_83
*380 FILLER_0_16_85
*381 FILLER_0_16_97
*382 FILLER_0_17_105
*383 FILLER_0_17_111
*384 FILLER_0_17_113
*385 FILLER_0_17_125
*386 FILLER_0_17_137
*387 FILLER_0_17_149
*388 FILLER_0_17_15
*389 FILLER_0_17_161
*390 FILLER_0_17_167
*391 FILLER_0_17_169
*392 FILLER_0_17_181
*393 FILLER_0_17_193
*394 FILLER_0_17_205
*395 FILLER_0_17_217
*396 FILLER_0_17_223
*397 FILLER_0_17_225
*398 FILLER_0_17_237
*399 FILLER_0_17_249
*400 FILLER_0_17_261
*401 FILLER_0_17_27
*402 FILLER_0_17_273
*403 FILLER_0_17_279
*404 FILLER_0_17_281
*405 FILLER_0_17_293
*406 FILLER_0_17_3
*407 FILLER_0_17_305
*408 FILLER_0_17_317
*409 FILLER_0_17_329
*410 FILLER_0_17_335
*411 FILLER_0_17_337
*412 FILLER_0_17_349
*413 FILLER_0_17_39
*414 FILLER_0_17_51
*415 FILLER_0_17_55
*416 FILLER_0_17_57
*417 FILLER_0_17_69
*418 FILLER_0_17_81
*419 FILLER_0_17_93
*420 FILLER_0_18_109
*421 FILLER_0_18_121
*422 FILLER_0_18_133
*423 FILLER_0_18_139
*424 FILLER_0_18_141
*425 FILLER_0_18_15
*426 FILLER_0_18_153
*427 FILLER_0_18_165
*428 FILLER_0_18_177
*429 FILLER_0_18_189
*430 FILLER_0_18_195
*431 FILLER_0_18_197
*432 FILLER_0_18_209
*433 FILLER_0_18_221
*434 FILLER_0_18_233
*435 FILLER_0_18_245
*436 FILLER_0_18_251
*437 FILLER_0_18_253
*438 FILLER_0_18_265
*439 FILLER_0_18_27
*440 FILLER_0_18_277
*441 FILLER_0_18_289
*442 FILLER_0_18_29
*443 FILLER_0_18_3
*444 FILLER_0_18_301
*445 FILLER_0_18_307
*446 FILLER_0_18_309
*447 FILLER_0_18_321
*448 FILLER_0_18_333
*449 FILLER_0_18_345
*450 FILLER_0_18_41
*451 FILLER_0_18_53
*452 FILLER_0_18_65
*453 FILLER_0_18_77
*454 FILLER_0_18_83
*455 FILLER_0_18_85
*456 FILLER_0_18_97
*457 FILLER_0_19_105
*458 FILLER_0_19_111
*459 FILLER_0_19_113
*460 FILLER_0_19_125
*461 FILLER_0_19_137
*462 FILLER_0_19_149
*463 FILLER_0_19_15
*464 FILLER_0_19_161
*465 FILLER_0_19_167
*466 FILLER_0_19_169
*467 FILLER_0_19_181
*468 FILLER_0_19_193
*469 FILLER_0_19_205
*470 FILLER_0_19_217
*471 FILLER_0_19_223
*472 FILLER_0_19_225
*473 FILLER_0_19_237
*474 FILLER_0_19_249
*475 FILLER_0_19_261
*476 FILLER_0_19_27
*477 FILLER_0_19_273
*478 FILLER_0_19_279
*479 FILLER_0_19_281
*480 FILLER_0_19_293
*481 FILLER_0_19_3
*482 FILLER_0_19_305
*483 FILLER_0_19_317
*484 FILLER_0_19_329
*485 FILLER_0_19_335
*486 FILLER_0_19_337
*487 FILLER_0_19_349
*488 FILLER_0_19_39
*489 FILLER_0_19_51
*490 FILLER_0_19_55
*491 FILLER_0_19_57
*492 FILLER_0_19_69
*493 FILLER_0_19_81
*494 FILLER_0_19_93
*495 FILLER_0_1_105
*496 FILLER_0_1_111
*497 FILLER_0_1_113
*498 FILLER_0_1_125
*499 FILLER_0_1_137
*500 FILLER_0_1_149
*501 FILLER_0_1_15
*502 FILLER_0_1_161
*503 FILLER_0_1_167
*504 FILLER_0_1_169
*505 FILLER_0_1_181
*506 FILLER_0_1_193
*507 FILLER_0_1_205
*508 FILLER_0_1_217
*509 FILLER_0_1_223
*510 FILLER_0_1_225
*511 FILLER_0_1_237
*512 FILLER_0_1_249
*513 FILLER_0_1_261
*514 FILLER_0_1_27
*515 FILLER_0_1_273
*516 FILLER_0_1_279
*517 FILLER_0_1_281
*518 FILLER_0_1_293
*519 FILLER_0_1_3
*520 FILLER_0_1_305
*521 FILLER_0_1_317
*522 FILLER_0_1_329
*523 FILLER_0_1_335
*524 FILLER_0_1_337
*525 FILLER_0_1_349
*526 FILLER_0_1_39
*527 FILLER_0_1_51
*528 FILLER_0_1_55
*529 FILLER_0_1_57
*530 FILLER_0_1_69
*531 FILLER_0_1_81
*532 FILLER_0_1_93
*533 FILLER_0_20_109
*534 FILLER_0_20_121
*535 FILLER_0_20_133
*536 FILLER_0_20_139
*537 FILLER_0_20_141
*538 FILLER_0_20_15
*539 FILLER_0_20_153
*540 FILLER_0_20_165
*541 FILLER_0_20_177
*542 FILLER_0_20_189
*543 FILLER_0_20_195
*544 FILLER_0_20_197
*545 FILLER_0_20_209
*546 FILLER_0_20_221
*547 FILLER_0_20_233
*548 FILLER_0_20_245
*549 FILLER_0_20_251
*550 FILLER_0_20_253
*551 FILLER_0_20_265
*552 FILLER_0_20_27
*553 FILLER_0_20_277
*554 FILLER_0_20_289
*555 FILLER_0_20_29
*556 FILLER_0_20_3
*557 FILLER_0_20_301
*558 FILLER_0_20_307
*559 FILLER_0_20_309
*560 FILLER_0_20_321
*561 FILLER_0_20_333
*562 FILLER_0_20_345
*563 FILLER_0_20_41
*564 FILLER_0_20_53
*565 FILLER_0_20_65
*566 FILLER_0_20_77
*567 FILLER_0_20_83
*568 FILLER_0_20_85
*569 FILLER_0_20_97
*570 FILLER_0_21_105
*571 FILLER_0_21_111
*572 FILLER_0_21_113
*573 FILLER_0_21_125
*574 FILLER_0_21_137
*575 FILLER_0_21_149
*576 FILLER_0_21_15
*577 FILLER_0_21_161
*578 FILLER_0_21_167
*579 FILLER_0_21_169
*580 FILLER_0_21_181
*581 FILLER_0_21_193
*582 FILLER_0_21_205
*583 FILLER_0_21_217
*584 FILLER_0_21_223
*585 FILLER_0_21_225
*586 FILLER_0_21_237
*587 FILLER_0_21_249
*588 FILLER_0_21_261
*589 FILLER_0_21_27
*590 FILLER_0_21_273
*591 FILLER_0_21_279
*592 FILLER_0_21_281
*593 FILLER_0_21_293
*594 FILLER_0_21_3
*595 FILLER_0_21_305
*596 FILLER_0_21_317
*597 FILLER_0_21_329
*598 FILLER_0_21_335
*599 FILLER_0_21_337
*600 FILLER_0_21_349
*601 FILLER_0_21_39
*602 FILLER_0_21_51
*603 FILLER_0_21_55
*604 FILLER_0_21_57
*605 FILLER_0_21_69
*606 FILLER_0_21_81
*607 FILLER_0_21_93
*608 FILLER_0_22_109
*609 FILLER_0_22_121
*610 FILLER_0_22_133
*611 FILLER_0_22_139
*612 FILLER_0_22_141
*613 FILLER_0_22_15
*614 FILLER_0_22_153
*615 FILLER_0_22_165
*616 FILLER_0_22_177
*617 FILLER_0_22_189
*618 FILLER_0_22_195
*619 FILLER_0_22_197
*620 FILLER_0_22_209
*621 FILLER_0_22_221
*622 FILLER_0_22_233
*623 FILLER_0_22_245
*624 FILLER_0_22_251
*625 FILLER_0_22_253
*626 FILLER_0_22_265
*627 FILLER_0_22_27
*628 FILLER_0_22_277
*629 FILLER_0_22_289
*630 FILLER_0_22_29
*631 FILLER_0_22_3
*632 FILLER_0_22_301
*633 FILLER_0_22_307
*634 FILLER_0_22_309
*635 FILLER_0_22_321
*636 FILLER_0_22_333
*637 FILLER_0_22_345
*638 FILLER_0_22_41
*639 FILLER_0_22_53
*640 FILLER_0_22_65
*641 FILLER_0_22_77
*642 FILLER_0_22_83
*643 FILLER_0_22_85
*644 FILLER_0_22_97
*645 FILLER_0_23_105
*646 FILLER_0_23_111
*647 FILLER_0_23_113
*648 FILLER_0_23_125
*649 FILLER_0_23_137
*650 FILLER_0_23_149
*651 FILLER_0_23_15
*652 FILLER_0_23_161
*653 FILLER_0_23_167
*654 FILLER_0_23_169
*655 FILLER_0_23_181
*656 FILLER_0_23_193
*657 FILLER_0_23_205
*658 FILLER_0_23_217
*659 FILLER_0_23_223
*660 FILLER_0_23_225
*661 FILLER_0_23_237
*662 FILLER_0_23_249
*663 FILLER_0_23_261
*664 FILLER_0_23_27
*665 FILLER_0_23_273
*666 FILLER_0_23_279
*667 FILLER_0_23_281
*668 FILLER_0_23_293
*669 FILLER_0_23_3
*670 FILLER_0_23_305
*671 FILLER_0_23_317
*672 FILLER_0_23_329
*673 FILLER_0_23_335
*674 FILLER_0_23_337
*675 FILLER_0_23_349
*676 FILLER_0_23_39
*677 FILLER_0_23_51
*678 FILLER_0_23_55
*679 FILLER_0_23_57
*680 FILLER_0_23_69
*681 FILLER_0_23_81
*682 FILLER_0_23_93
*683 FILLER_0_24_109
*684 FILLER_0_24_121
*685 FILLER_0_24_133
*686 FILLER_0_24_139
*687 FILLER_0_24_141
*688 FILLER_0_24_15
*689 FILLER_0_24_153
*690 FILLER_0_24_165
*691 FILLER_0_24_177
*692 FILLER_0_24_189
*693 FILLER_0_24_195
*694 FILLER_0_24_197
*695 FILLER_0_24_209
*696 FILLER_0_24_221
*697 FILLER_0_24_233
*698 FILLER_0_24_245
*699 FILLER_0_24_251
*700 FILLER_0_24_253
*701 FILLER_0_24_265
*702 FILLER_0_24_27
*703 FILLER_0_24_277
*704 FILLER_0_24_289
*705 FILLER_0_24_29
*706 FILLER_0_24_3
*707 FILLER_0_24_301
*708 FILLER_0_24_307
*709 FILLER_0_24_309
*710 FILLER_0_24_321
*711 FILLER_0_24_333
*712 FILLER_0_24_345
*713 FILLER_0_24_41
*714 FILLER_0_24_53
*715 FILLER_0_24_65
*716 FILLER_0_24_77
*717 FILLER_0_24_83
*718 FILLER_0_24_85
*719 FILLER_0_24_97
*720 FILLER_0_25_105
*721 FILLER_0_25_111
*722 FILLER_0_25_113
*723 FILLER_0_25_125
*724 FILLER_0_25_137
*725 FILLER_0_25_149
*726 FILLER_0_25_15
*727 FILLER_0_25_161
*728 FILLER_0_25_167
*729 FILLER_0_25_169
*730 FILLER_0_25_181
*731 FILLER_0_25_193
*732 FILLER_0_25_205
*733 FILLER_0_25_217
*734 FILLER_0_25_223
*735 FILLER_0_25_225
*736 FILLER_0_25_237
*737 FILLER_0_25_249
*738 FILLER_0_25_261
*739 FILLER_0_25_27
*740 FILLER_0_25_273
*741 FILLER_0_25_279
*742 FILLER_0_25_281
*743 FILLER_0_25_293
*744 FILLER_0_25_3
*745 FILLER_0_25_305
*746 FILLER_0_25_317
*747 FILLER_0_25_329
*748 FILLER_0_25_335
*749 FILLER_0_25_337
*750 FILLER_0_25_349
*751 FILLER_0_25_39
*752 FILLER_0_25_51
*753 FILLER_0_25_55
*754 FILLER_0_25_57
*755 FILLER_0_25_69
*756 FILLER_0_25_81
*757 FILLER_0_25_93
*758 FILLER_0_26_109
*759 FILLER_0_26_121
*760 FILLER_0_26_133
*761 FILLER_0_26_139
*762 FILLER_0_26_141
*763 FILLER_0_26_15
*764 FILLER_0_26_153
*765 FILLER_0_26_165
*766 FILLER_0_26_177
*767 FILLER_0_26_189
*768 FILLER_0_26_195
*769 FILLER_0_26_197
*770 FILLER_0_26_209
*771 FILLER_0_26_221
*772 FILLER_0_26_233
*773 FILLER_0_26_245
*774 FILLER_0_26_251
*775 FILLER_0_26_253
*776 FILLER_0_26_265
*777 FILLER_0_26_27
*778 FILLER_0_26_277
*779 FILLER_0_26_289
*780 FILLER_0_26_29
*781 FILLER_0_26_3
*782 FILLER_0_26_301
*783 FILLER_0_26_307
*784 FILLER_0_26_309
*785 FILLER_0_26_321
*786 FILLER_0_26_333
*787 FILLER_0_26_345
*788 FILLER_0_26_41
*789 FILLER_0_26_53
*790 FILLER_0_26_65
*791 FILLER_0_26_77
*792 FILLER_0_26_83
*793 FILLER_0_26_85
*794 FILLER_0_26_97
*795 FILLER_0_27_105
*796 FILLER_0_27_111
*797 FILLER_0_27_113
*798 FILLER_0_27_125
*799 FILLER_0_27_137
*800 FILLER_0_27_149
*801 FILLER_0_27_15
*802 FILLER_0_27_161
*803 FILLER_0_27_167
*804 FILLER_0_27_169
*805 FILLER_0_27_181
*806 FILLER_0_27_193
*807 FILLER_0_27_205
*808 FILLER_0_27_217
*809 FILLER_0_27_223
*810 FILLER_0_27_225
*811 FILLER_0_27_237
*812 FILLER_0_27_249
*813 FILLER_0_27_261
*814 FILLER_0_27_27
*815 FILLER_0_27_273
*816 FILLER_0_27_279
*817 FILLER_0_27_281
*818 FILLER_0_27_293
*819 FILLER_0_27_3
*820 FILLER_0_27_305
*821 FILLER_0_27_317
*822 FILLER_0_27_329
*823 FILLER_0_27_335
*824 FILLER_0_27_337
*825 FILLER_0_27_349
*826 FILLER_0_27_39
*827 FILLER_0_27_51
*828 FILLER_0_27_55
*829 FILLER_0_27_57
*830 FILLER_0_27_69
*831 FILLER_0_27_81
*832 FILLER_0_27_93
*833 FILLER_0_28_109
*834 FILLER_0_28_121
*835 FILLER_0_28_133
*836 FILLER_0_28_139
*837 FILLER_0_28_141
*838 FILLER_0_28_15
*839 FILLER_0_28_153
*840 FILLER_0_28_165
*841 FILLER_0_28_177
*842 FILLER_0_28_189
*843 FILLER_0_28_195
*844 FILLER_0_28_197
*845 FILLER_0_28_209
*846 FILLER_0_28_221
*847 FILLER_0_28_233
*848 FILLER_0_28_245
*849 FILLER_0_28_251
*850 FILLER_0_28_253
*851 FILLER_0_28_265
*852 FILLER_0_28_27
*853 FILLER_0_28_277
*854 FILLER_0_28_289
*855 FILLER_0_28_29
*856 FILLER_0_28_3
*857 FILLER_0_28_301
*858 FILLER_0_28_307
*859 FILLER_0_28_309
*860 FILLER_0_28_321
*861 FILLER_0_28_333
*862 FILLER_0_28_345
*863 FILLER_0_28_41
*864 FILLER_0_28_53
*865 FILLER_0_28_65
*866 FILLER_0_28_77
*867 FILLER_0_28_83
*868 FILLER_0_28_85
*869 FILLER_0_28_97
*870 FILLER_0_29_105
*871 FILLER_0_29_111
*872 FILLER_0_29_113
*873 FILLER_0_29_125
*874 FILLER_0_29_137
*875 FILLER_0_29_149
*876 FILLER_0_29_15
*877 FILLER_0_29_161
*878 FILLER_0_29_167
*879 FILLER_0_29_169
*880 FILLER_0_29_181
*881 FILLER_0_29_193
*882 FILLER_0_29_205
*883 FILLER_0_29_217
*884 FILLER_0_29_223
*885 FILLER_0_29_225
*886 FILLER_0_29_237
*887 FILLER_0_29_249
*888 FILLER_0_29_261
*889 FILLER_0_29_27
*890 FILLER_0_29_273
*891 FILLER_0_29_279
*892 FILLER_0_29_281
*893 FILLER_0_29_293
*894 FILLER_0_29_3
*895 FILLER_0_29_305
*896 FILLER_0_29_317
*897 FILLER_0_29_329
*898 FILLER_0_29_335
*899 FILLER_0_29_337
*900 FILLER_0_29_349
*901 FILLER_0_29_39
*902 FILLER_0_29_51
*903 FILLER_0_29_55
*904 FILLER_0_29_57
*905 FILLER_0_29_69
*906 FILLER_0_29_81
*907 FILLER_0_29_93
*908 FILLER_0_2_109
*909 FILLER_0_2_121
*910 FILLER_0_2_133
*911 FILLER_0_2_139
*912 FILLER_0_2_141
*913 FILLER_0_2_15
*914 FILLER_0_2_153
*915 FILLER_0_2_165
*916 FILLER_0_2_177
*917 FILLER_0_2_189
*918 FILLER_0_2_195
*919 FILLER_0_2_197
*920 FILLER_0_2_209
*921 FILLER_0_2_221
*922 FILLER_0_2_233
*923 FILLER_0_2_245
*924 FILLER_0_2_251
*925 FILLER_0_2_253
*926 FILLER_0_2_265
*927 FILLER_0_2_27
*928 FILLER_0_2_277
*929 FILLER_0_2_289
*930 FILLER_0_2_29
*931 FILLER_0_2_3
*932 FILLER_0_2_301
*933 FILLER_0_2_307
*934 FILLER_0_2_309
*935 FILLER_0_2_321
*936 FILLER_0_2_333
*937 FILLER_0_2_345
*938 FILLER_0_2_41
*939 FILLER_0_2_53
*940 FILLER_0_2_65
*941 FILLER_0_2_77
*942 FILLER_0_2_83
*943 FILLER_0_2_85
*944 FILLER_0_2_97
*945 FILLER_0_30_109
*946 FILLER_0_30_121
*947 FILLER_0_30_133
*948 FILLER_0_30_139
*949 FILLER_0_30_141
*950 FILLER_0_30_15
*951 FILLER_0_30_153
*952 FILLER_0_30_165
*953 FILLER_0_30_177
*954 FILLER_0_30_189
*955 FILLER_0_30_195
*956 FILLER_0_30_197
*957 FILLER_0_30_209
*958 FILLER_0_30_221
*959 FILLER_0_30_233
*960 FILLER_0_30_245
*961 FILLER_0_30_251
*962 FILLER_0_30_253
*963 FILLER_0_30_265
*964 FILLER_0_30_27
*965 FILLER_0_30_277
*966 FILLER_0_30_289
*967 FILLER_0_30_29
*968 FILLER_0_30_3
*969 FILLER_0_30_301
*970 FILLER_0_30_307
*971 FILLER_0_30_309
*972 FILLER_0_30_321
*973 FILLER_0_30_333
*974 FILLER_0_30_345
*975 FILLER_0_30_41
*976 FILLER_0_30_53
*977 FILLER_0_30_65
*978 FILLER_0_30_77
*979 FILLER_0_30_83
*980 FILLER_0_30_85
*981 FILLER_0_30_97
*982 FILLER_0_31_105
*983 FILLER_0_31_111
*984 FILLER_0_31_113
*985 FILLER_0_31_125
*986 FILLER_0_31_137
*987 FILLER_0_31_149
*988 FILLER_0_31_15
*989 FILLER_0_31_161
*990 FILLER_0_31_167
*991 FILLER_0_31_169
*992 FILLER_0_31_181
*993 FILLER_0_31_193
*994 FILLER_0_31_205
*995 FILLER_0_31_217
*996 FILLER_0_31_223
*997 FILLER_0_31_225
*998 FILLER_0_31_237
*999 FILLER_0_31_249
*1000 FILLER_0_31_261
*1001 FILLER_0_31_27
*1002 FILLER_0_31_273
*1003 FILLER_0_31_279
*1004 FILLER_0_31_281
*1005 FILLER_0_31_293
*1006 FILLER_0_31_3
*1007 FILLER_0_31_305
*1008 FILLER_0_31_317
*1009 FILLER_0_31_329
*1010 FILLER_0_31_335
*1011 FILLER_0_31_337
*1012 FILLER_0_31_349
*1013 FILLER_0_31_39
*1014 FILLER_0_31_51
*1015 FILLER_0_31_55
*1016 FILLER_0_31_57
*1017 FILLER_0_31_69
*1018 FILLER_0_31_81
*1019 FILLER_0_31_93
*1020 FILLER_0_32_109
*1021 FILLER_0_32_121
*1022 FILLER_0_32_133
*1023 FILLER_0_32_139
*1024 FILLER_0_32_141
*1025 FILLER_0_32_15
*1026 FILLER_0_32_153
*1027 FILLER_0_32_165
*1028 FILLER_0_32_177
*1029 FILLER_0_32_189
*1030 FILLER_0_32_195
*1031 FILLER_0_32_197
*1032 FILLER_0_32_209
*1033 FILLER_0_32_221
*1034 FILLER_0_32_233
*1035 FILLER_0_32_245
*1036 FILLER_0_32_251
*1037 FILLER_0_32_253
*1038 FILLER_0_32_265
*1039 FILLER_0_32_27
*1040 FILLER_0_32_277
*1041 FILLER_0_32_289
*1042 FILLER_0_32_29
*1043 FILLER_0_32_3
*1044 FILLER_0_32_301
*1045 FILLER_0_32_307
*1046 FILLER_0_32_309
*1047 FILLER_0_32_321
*1048 FILLER_0_32_333
*1049 FILLER_0_32_345
*1050 FILLER_0_32_41
*1051 FILLER_0_32_53
*1052 FILLER_0_32_65
*1053 FILLER_0_32_77
*1054 FILLER_0_32_83
*1055 FILLER_0_32_85
*1056 FILLER_0_32_97
*1057 FILLER_0_33_105
*1058 FILLER_0_33_111
*1059 FILLER_0_33_113
*1060 FILLER_0_33_125
*1061 FILLER_0_33_137
*1062 FILLER_0_33_149
*1063 FILLER_0_33_15
*1064 FILLER_0_33_161
*1065 FILLER_0_33_167
*1066 FILLER_0_33_169
*1067 FILLER_0_33_181
*1068 FILLER_0_33_193
*1069 FILLER_0_33_205
*1070 FILLER_0_33_217
*1071 FILLER_0_33_223
*1072 FILLER_0_33_225
*1073 FILLER_0_33_237
*1074 FILLER_0_33_249
*1075 FILLER_0_33_261
*1076 FILLER_0_33_27
*1077 FILLER_0_33_273
*1078 FILLER_0_33_279
*1079 FILLER_0_33_281
*1080 FILLER_0_33_293
*1081 FILLER_0_33_3
*1082 FILLER_0_33_305
*1083 FILLER_0_33_317
*1084 FILLER_0_33_329
*1085 FILLER_0_33_335
*1086 FILLER_0_33_337
*1087 FILLER_0_33_349
*1088 FILLER_0_33_39
*1089 FILLER_0_33_51
*1090 FILLER_0_33_55
*1091 FILLER_0_33_57
*1092 FILLER_0_33_69
*1093 FILLER_0_33_81
*1094 FILLER_0_33_93
*1095 FILLER_0_34_109
*1096 FILLER_0_34_121
*1097 FILLER_0_34_127
*1098 FILLER_0_34_135
*1099 FILLER_0_34_141
*1100 FILLER_0_34_146
*1101 FILLER_0_34_15
*1102 FILLER_0_34_158
*1103 FILLER_0_34_170
*1104 FILLER_0_34_182
*1105 FILLER_0_34_194
*1106 FILLER_0_34_197
*1107 FILLER_0_34_209
*1108 FILLER_0_34_221
*1109 FILLER_0_34_233
*1110 FILLER_0_34_245
*1111 FILLER_0_34_251
*1112 FILLER_0_34_253
*1113 FILLER_0_34_265
*1114 FILLER_0_34_27
*1115 FILLER_0_34_277
*1116 FILLER_0_34_289
*1117 FILLER_0_34_29
*1118 FILLER_0_34_3
*1119 FILLER_0_34_301
*1120 FILLER_0_34_307
*1121 FILLER_0_34_309
*1122 FILLER_0_34_321
*1123 FILLER_0_34_333
*1124 FILLER_0_34_345
*1125 FILLER_0_34_41
*1126 FILLER_0_34_53
*1127 FILLER_0_34_65
*1128 FILLER_0_34_77
*1129 FILLER_0_34_83
*1130 FILLER_0_34_85
*1131 FILLER_0_34_97
*1132 FILLER_0_35_105
*1133 FILLER_0_35_111
*1134 FILLER_0_35_113
*1135 FILLER_0_35_15
*1136 FILLER_0_35_159
*1137 FILLER_0_35_167
*1138 FILLER_0_35_189
*1139 FILLER_0_35_201
*1140 FILLER_0_35_210
*1141 FILLER_0_35_222
*1142 FILLER_0_35_225
*1143 FILLER_0_35_237
*1144 FILLER_0_35_249
*1145 FILLER_0_35_261
*1146 FILLER_0_35_27
*1147 FILLER_0_35_273
*1148 FILLER_0_35_279
*1149 FILLER_0_35_281
*1150 FILLER_0_35_293
*1151 FILLER_0_35_3
*1152 FILLER_0_35_305
*1153 FILLER_0_35_317
*1154 FILLER_0_35_329
*1155 FILLER_0_35_335
*1156 FILLER_0_35_337
*1157 FILLER_0_35_349
*1158 FILLER_0_35_39
*1159 FILLER_0_35_51
*1160 FILLER_0_35_55
*1161 FILLER_0_35_57
*1162 FILLER_0_35_69
*1163 FILLER_0_35_81
*1164 FILLER_0_35_93
*1165 FILLER_0_36_109
*1166 FILLER_0_36_119
*1167 FILLER_0_36_141
*1168 FILLER_0_36_15
*1169 FILLER_0_36_168
*1170 FILLER_0_36_229
*1171 FILLER_0_36_241
*1172 FILLER_0_36_249
*1173 FILLER_0_36_253
*1174 FILLER_0_36_265
*1175 FILLER_0_36_27
*1176 FILLER_0_36_277
*1177 FILLER_0_36_285
*1178 FILLER_0_36_29
*1179 FILLER_0_36_293
*1180 FILLER_0_36_3
*1181 FILLER_0_36_305
*1182 FILLER_0_36_309
*1183 FILLER_0_36_321
*1184 FILLER_0_36_333
*1185 FILLER_0_36_345
*1186 FILLER_0_36_41
*1187 FILLER_0_36_53
*1188 FILLER_0_36_65
*1189 FILLER_0_36_77
*1190 FILLER_0_36_83
*1191 FILLER_0_36_85
*1192 FILLER_0_36_97
*1193 FILLER_0_37_100
*1194 FILLER_0_37_104
*1195 FILLER_0_37_109
*1196 FILLER_0_37_113
*1197 FILLER_0_37_119
*1198 FILLER_0_37_15
*1199 FILLER_0_37_156
*1200 FILLER_0_37_189
*1201 FILLER_0_37_197
*1202 FILLER_0_37_231
*1203 FILLER_0_37_243
*1204 FILLER_0_37_255
*1205 FILLER_0_37_267
*1206 FILLER_0_37_27
*1207 FILLER_0_37_279
*1208 FILLER_0_37_3
*1209 FILLER_0_37_305
*1210 FILLER_0_37_317
*1211 FILLER_0_37_329
*1212 FILLER_0_37_335
*1213 FILLER_0_37_337
*1214 FILLER_0_37_349
*1215 FILLER_0_37_39
*1216 FILLER_0_37_51
*1217 FILLER_0_37_55
*1218 FILLER_0_37_57
*1219 FILLER_0_37_69
*1220 FILLER_0_37_81
*1221 FILLER_0_37_88
*1222 FILLER_0_38_106
*1223 FILLER_0_38_113
*1224 FILLER_0_38_119
*1225 FILLER_0_38_141
*1226 FILLER_0_38_149
*1227 FILLER_0_38_15
*1228 FILLER_0_38_154
*1229 FILLER_0_38_166
*1230 FILLER_0_38_169
*1231 FILLER_0_38_176
*1232 FILLER_0_38_188
*1233 FILLER_0_38_203
*1234 FILLER_0_38_22
*1235 FILLER_0_38_231
*1236 FILLER_0_38_243
*1237 FILLER_0_38_251
*1238 FILLER_0_38_253
*1239 FILLER_0_38_265
*1240 FILLER_0_38_277
*1241 FILLER_0_38_281
*1242 FILLER_0_38_3
*1243 FILLER_0_38_302
*1244 FILLER_0_38_312
*1245 FILLER_0_38_318
*1246 FILLER_0_38_32
*1247 FILLER_0_38_322
*1248 FILLER_0_38_326
*1249 FILLER_0_38_334
*1250 FILLER_0_38_341
*1251 FILLER_0_38_349
*1252 FILLER_0_38_38
*1253 FILLER_0_38_42
*1254 FILLER_0_38_46
*1255 FILLER_0_38_50
*1256 FILLER_0_38_54
*1257 FILLER_0_38_57
*1258 FILLER_0_38_62
*1259 FILLER_0_38_66
*1260 FILLER_0_38_70
*1261 FILLER_0_38_82
*1262 FILLER_0_38_88
*1263 FILLER_0_38_94
*1264 FILLER_0_3_105
*1265 FILLER_0_3_111
*1266 FILLER_0_3_113
*1267 FILLER_0_3_125
*1268 FILLER_0_3_137
*1269 FILLER_0_3_149
*1270 FILLER_0_3_15
*1271 FILLER_0_3_161
*1272 FILLER_0_3_167
*1273 FILLER_0_3_169
*1274 FILLER_0_3_181
*1275 FILLER_0_3_193
*1276 FILLER_0_3_205
*1277 FILLER_0_3_217
*1278 FILLER_0_3_223
*1279 FILLER_0_3_225
*1280 FILLER_0_3_237
*1281 FILLER_0_3_249
*1282 FILLER_0_3_261
*1283 FILLER_0_3_27
*1284 FILLER_0_3_273
*1285 FILLER_0_3_279
*1286 FILLER_0_3_281
*1287 FILLER_0_3_293
*1288 FILLER_0_3_3
*1289 FILLER_0_3_305
*1290 FILLER_0_3_317
*1291 FILLER_0_3_329
*1292 FILLER_0_3_335
*1293 FILLER_0_3_337
*1294 FILLER_0_3_349
*1295 FILLER_0_3_39
*1296 FILLER_0_3_51
*1297 FILLER_0_3_55
*1298 FILLER_0_3_57
*1299 FILLER_0_3_69
*1300 FILLER_0_3_81
*1301 FILLER_0_3_93
*1302 FILLER_0_4_109
*1303 FILLER_0_4_121
*1304 FILLER_0_4_133
*1305 FILLER_0_4_139
*1306 FILLER_0_4_141
*1307 FILLER_0_4_15
*1308 FILLER_0_4_153
*1309 FILLER_0_4_165
*1310 FILLER_0_4_177
*1311 FILLER_0_4_189
*1312 FILLER_0_4_195
*1313 FILLER_0_4_197
*1314 FILLER_0_4_209
*1315 FILLER_0_4_221
*1316 FILLER_0_4_233
*1317 FILLER_0_4_245
*1318 FILLER_0_4_251
*1319 FILLER_0_4_253
*1320 FILLER_0_4_265
*1321 FILLER_0_4_27
*1322 FILLER_0_4_277
*1323 FILLER_0_4_289
*1324 FILLER_0_4_29
*1325 FILLER_0_4_3
*1326 FILLER_0_4_301
*1327 FILLER_0_4_307
*1328 FILLER_0_4_309
*1329 FILLER_0_4_321
*1330 FILLER_0_4_333
*1331 FILLER_0_4_345
*1332 FILLER_0_4_41
*1333 FILLER_0_4_53
*1334 FILLER_0_4_65
*1335 FILLER_0_4_77
*1336 FILLER_0_4_83
*1337 FILLER_0_4_85
*1338 FILLER_0_4_97
*1339 FILLER_0_5_105
*1340 FILLER_0_5_111
*1341 FILLER_0_5_113
*1342 FILLER_0_5_125
*1343 FILLER_0_5_137
*1344 FILLER_0_5_149
*1345 FILLER_0_5_15
*1346 FILLER_0_5_161
*1347 FILLER_0_5_167
*1348 FILLER_0_5_169
*1349 FILLER_0_5_181
*1350 FILLER_0_5_193
*1351 FILLER_0_5_205
*1352 FILLER_0_5_217
*1353 FILLER_0_5_223
*1354 FILLER_0_5_225
*1355 FILLER_0_5_237
*1356 FILLER_0_5_249
*1357 FILLER_0_5_261
*1358 FILLER_0_5_27
*1359 FILLER_0_5_273
*1360 FILLER_0_5_279
*1361 FILLER_0_5_281
*1362 FILLER_0_5_293
*1363 FILLER_0_5_3
*1364 FILLER_0_5_305
*1365 FILLER_0_5_317
*1366 FILLER_0_5_329
*1367 FILLER_0_5_335
*1368 FILLER_0_5_337
*1369 FILLER_0_5_349
*1370 FILLER_0_5_39
*1371 FILLER_0_5_51
*1372 FILLER_0_5_55
*1373 FILLER_0_5_57
*1374 FILLER_0_5_69
*1375 FILLER_0_5_81
*1376 FILLER_0_5_93
*1377 FILLER_0_6_109
*1378 FILLER_0_6_121
*1379 FILLER_0_6_133
*1380 FILLER_0_6_139
*1381 FILLER_0_6_141
*1382 FILLER_0_6_15
*1383 FILLER_0_6_153
*1384 FILLER_0_6_165
*1385 FILLER_0_6_177
*1386 FILLER_0_6_189
*1387 FILLER_0_6_195
*1388 FILLER_0_6_197
*1389 FILLER_0_6_209
*1390 FILLER_0_6_221
*1391 FILLER_0_6_233
*1392 FILLER_0_6_245
*1393 FILLER_0_6_251
*1394 FILLER_0_6_253
*1395 FILLER_0_6_265
*1396 FILLER_0_6_27
*1397 FILLER_0_6_277
*1398 FILLER_0_6_289
*1399 FILLER_0_6_29
*1400 FILLER_0_6_3
*1401 FILLER_0_6_301
*1402 FILLER_0_6_307
*1403 FILLER_0_6_309
*1404 FILLER_0_6_321
*1405 FILLER_0_6_333
*1406 FILLER_0_6_345
*1407 FILLER_0_6_41
*1408 FILLER_0_6_53
*1409 FILLER_0_6_65
*1410 FILLER_0_6_77
*1411 FILLER_0_6_83
*1412 FILLER_0_6_85
*1413 FILLER_0_6_97
*1414 FILLER_0_7_105
*1415 FILLER_0_7_111
*1416 FILLER_0_7_113
*1417 FILLER_0_7_125
*1418 FILLER_0_7_137
*1419 FILLER_0_7_149
*1420 FILLER_0_7_15
*1421 FILLER_0_7_161
*1422 FILLER_0_7_167
*1423 FILLER_0_7_169
*1424 FILLER_0_7_181
*1425 FILLER_0_7_193
*1426 FILLER_0_7_205
*1427 FILLER_0_7_217
*1428 FILLER_0_7_223
*1429 FILLER_0_7_225
*1430 FILLER_0_7_237
*1431 FILLER_0_7_249
*1432 FILLER_0_7_261
*1433 FILLER_0_7_27
*1434 FILLER_0_7_273
*1435 FILLER_0_7_279
*1436 FILLER_0_7_281
*1437 FILLER_0_7_293
*1438 FILLER_0_7_3
*1439 FILLER_0_7_305
*1440 FILLER_0_7_317
*1441 FILLER_0_7_329
*1442 FILLER_0_7_335
*1443 FILLER_0_7_337
*1444 FILLER_0_7_349
*1445 FILLER_0_7_39
*1446 FILLER_0_7_51
*1447 FILLER_0_7_55
*1448 FILLER_0_7_57
*1449 FILLER_0_7_69
*1450 FILLER_0_7_81
*1451 FILLER_0_7_93
*1452 FILLER_0_8_109
*1453 FILLER_0_8_121
*1454 FILLER_0_8_133
*1455 FILLER_0_8_139
*1456 FILLER_0_8_141
*1457 FILLER_0_8_15
*1458 FILLER_0_8_153
*1459 FILLER_0_8_165
*1460 FILLER_0_8_177
*1461 FILLER_0_8_189
*1462 FILLER_0_8_195
*1463 FILLER_0_8_197
*1464 FILLER_0_8_209