*SPEF "ieee 1481-1999"
*DESIGN "tt_um_mjbella_led_matrix_driver"
*DATE "11:11:11 Fri 11 11, 1111"
*VENDOR "OpenRCX"
*PROGRAM "Parallel Extraction"
*VERSION "1.0"
*DESIGN_FLOW "NAME_SCOPE LOCAL" "PIN_CAP NONE"
*DIVIDER /
*DELIMITER :
*BUS_DELIMITER []
*T_UNIT 1 NS
*C_UNIT 1 PF
*R_UNIT 1 OHM
*L_UNIT 1 HENRY

*NAME_MAP
*3 clk
*4 ena
*5 rst_n
*6 ui_in[0]
*7 ui_in[1]
*8 ui_in[2]
*9 ui_in[3]
*10 ui_in[4]
*11 ui_in[5]
*12 ui_in[6]
*13 ui_in[7]
*14 uio_in[0]
*15 uio_in[1]
*16 uio_in[2]
*17 uio_in[3]
*18 uio_in[4]
*19 uio_in[5]
*20 uio_in[6]
*21 uio_in[7]
*22 net13
*23 net14
*24 net15
*25 net16
*26 net17
*27 net18
*28 net19
*29 net20
*30 uio_out[0]
*31 uio_out[1]
*32 uio_out[2]
*33 uio_out[3]
*34 uio_out[4]
*35 uio_out[5]
*36 uio_out[6]
*37 uio_out[7]
*38 uo_out[0]
*39 uo_out[1]
*40 uo_out[2]
*41 uo_out[3]
*42 uo_out[4]
*43 uo_out[5]
*44 uo_out[6]
*45 uo_out[7]
*46 _000_
*47 _001_
*48 _002_
*49 _003_
*50 _004_
*51 _005_
*52 _006_
*53 _007_
*54 _008_
*55 _009_
*56 _011_
*57 _012_
*58 _013_
*59 _014_
*60 _015_
*61 _016_
*62 _017_
*63 _018_
*64 _019_
*65 _020_
*66 _021_
*67 _022_
*68 _023_
*69 _024_
*70 _025_
*71 _026_
*72 _027_
*73 _028_
*74 _029_
*75 _030_
*76 _031_
*77 _032_
*78 _033_
*79 _034_
*80 _035_
*81 _036_
*82 _037_
*83 _038_
*84 _039_
*85 _040_
*86 _041_
*87 _042_
*88 _043_
*89 _044_
*90 _045_
*91 _046_
*92 _047_
*93 _048_
*94 _049_
*95 _050_
*96 _051_
*97 _052_
*98 _053_
*99 _054_
*100 _055_
*101 _056_
*102 _057_
*103 _058_
*104 _059_
*105 _060_
*106 _061_
*107 _062_
*108 _063_
*109 _064_
*110 _065_
*111 _066_
*112 _067_
*113 _068_
*114 _069_
*115 _070_
*116 _071_
*117 _072_
*118 _073_
*119 _074_
*120 _075_
*121 _076_
*122 _077_
*123 _078_
*124 _079_
*125 _080_
*126 _081_
*127 _082_
*128 _083_
*129 _084_
*130 _085_
*131 _086_
*132 _087_
*133 _088_
*134 _089_
*135 _090_
*136 _091_
*137 _092_
*138 _093_
*139 _094_
*140 _095_
*141 _096_
*142 _097_
*143 _098_
*144 _099_
*145 _100_
*146 _101_
*147 blank_sr\.q
*148 cdec\.col_counter\[0\]
*149 cdec\.col_counter\[1\]
*150 cdec\.col_counter\[2\]
*151 cdec\.decode_out\[0\]
*152 cdec\.decode_out\[1\]
*153 cdec\.decode_out\[2\]
*154 cdec\.decode_out\[3\]
*155 cdec\.decode_out\[4\]
*156 cdec\.decode_out\[5\]
*157 cdec\.decode_out\[6\]
*158 cdec\.decode_out\[7\]
*159 chain\[0\]
*160 chain\[10\]
*161 chain\[11\]
*162 chain\[12\]
*163 chain\[13\]
*164 chain\[14\]
*165 chain\[15\]
*166 chain\[16\]
*167 chain\[17\]
*168 chain\[18\]
*169 chain\[19\]
*170 chain\[1\]
*171 chain\[20\]
*172 chain\[21\]
*173 chain\[22\]
*174 chain\[23\]
*175 chain\[24\]
*176 chain\[25\]
*177 chain\[26\]
*178 chain\[27\]
*179 chain\[28\]
*180 chain\[29\]
*181 chain\[2\]
*182 chain\[30\]
*183 chain\[31\]
*184 chain\[32\]
*185 chain\[33\]
*186 chain\[34\]
*187 chain\[35\]
*188 chain\[36\]
*189 chain\[37\]
*190 chain\[38\]
*191 chain\[39\]
*192 chain\[3\]
*193 chain\[40\]
*194 chain\[41\]
*195 chain\[42\]
*196 chain\[43\]
*197 chain\[44\]
*198 chain\[45\]
*199 chain\[46\]
*200 chain\[47\]
*201 chain\[48\]
*202 chain\[49\]
*203 chain\[4\]
*204 chain\[50\]
*205 chain\[51\]
*206 chain\[52\]
*207 chain\[53\]
*208 chain\[54\]
*209 chain\[55\]
*210 chain\[56\]
*211 chain\[57\]
*212 chain\[58\]
*213 chain\[59\]
*214 chain\[5\]
*215 chain\[60\]
*216 chain\[61\]
*217 chain\[62\]
*218 chain\[63\]
*219 chain\[6\]
*220 chain\[7\]
*221 chain\[8\]
*222 chain\[9\]
*223 clknet_0_clk
*224 clknet_3_0_0_clk
*225 clknet_3_1_0_clk
*226 clknet_3_2_0_clk
*227 clknet_3_3_0_clk
*228 clknet_3_4_0_clk
*229 clknet_3_5_0_clk
*230 clknet_3_6_0_clk
*231 clknet_3_7_0_clk
*232 cmux\.vbuf\[0\]
*233 cmux\.vbuf\[10\]
*234 cmux\.vbuf\[11\]
*235 cmux\.vbuf\[12\]
*236 cmux\.vbuf\[13\]
*237 cmux\.vbuf\[14\]
*238 cmux\.vbuf\[15\]
*239 cmux\.vbuf\[16\]
*240 cmux\.vbuf\[17\]
*241 cmux\.vbuf\[18\]
*242 cmux\.vbuf\[19\]
*243 cmux\.vbuf\[1\]
*244 cmux\.vbuf\[20\]
*245 cmux\.vbuf\[21\]
*246 cmux\.vbuf\[22\]
*247 cmux\.vbuf\[23\]
*248 cmux\.vbuf\[24\]
*249 cmux\.vbuf\[25\]
*250 cmux\.vbuf\[26\]
*251 cmux\.vbuf\[27\]
*252 cmux\.vbuf\[28\]
*253 cmux\.vbuf\[29\]
*254 cmux\.vbuf\[2\]
*255 cmux\.vbuf\[30\]
*256 cmux\.vbuf\[31\]
*257 cmux\.vbuf\[32\]
*258 cmux\.vbuf\[33\]
*259 cmux\.vbuf\[34\]
*260 cmux\.vbuf\[35\]
*261 cmux\.vbuf\[36\]
*262 cmux\.vbuf\[37\]
*263 cmux\.vbuf\[38\]
*264 cmux\.vbuf\[39\]
*265 cmux\.vbuf\[3\]
*266 cmux\.vbuf\[40\]
*267 cmux\.vbuf\[41\]
*268 cmux\.vbuf\[42\]
*269 cmux\.vbuf\[43\]
*270 cmux\.vbuf\[44\]
*271 cmux\.vbuf\[45\]
*272 cmux\.vbuf\[46\]
*273 cmux\.vbuf\[47\]
*274 cmux\.vbuf\[48\]
*275 cmux\.vbuf\[49\]
*276 cmux\.vbuf\[4\]
*277 cmux\.vbuf\[50\]
*278 cmux\.vbuf\[51\]
*279 cmux\.vbuf\[52\]
*280 cmux\.vbuf\[53\]
*281 cmux\.vbuf\[54\]
*282 cmux\.vbuf\[55\]
*283 cmux\.vbuf\[56\]
*284 cmux\.vbuf\[57\]
*285 cmux\.vbuf\[58\]
*286 cmux\.vbuf\[59\]
*287 cmux\.vbuf\[5\]
*288 cmux\.vbuf\[60\]
*289 cmux\.vbuf\[61\]
*290 cmux\.vbuf\[62\]
*291 cmux\.vbuf\[63\]
*292 cmux\.vbuf\[6\]
*293 cmux\.vbuf\[7\]
*294 cmux\.vbuf\[8\]
*295 cmux\.vbuf\[9\]
*296 col_count\[0\]
*297 col_count\[1\]
*298 col_count\[2\]
*299 col_count\[3\]
*300 col_count\[4\]
*301 net1
*302 net10
*303 net11
*304 net12
*305 net2
*306 net21
*307 net22
*308 net23
*309 net24
*310 net25
*311 net26
*312 net27
*313 net28
*314 net29
*315 net3
*316 net30
*317 net31
*318 net32
*319 net33
*320 net34
*321 net35
*322 net36
*323 net37
*324 net38
*325 net39
*326 net4
*327 net40
*328 net41
*329 net42
*330 net43
*331 net44
*332 net45
*333 net46
*334 net47
*335 net48
*336 net49
*337 net5
*338 net50
*339 net51
*340 net52
*341 net53
*342 net54
*343 net55
*344 net56
*345 net57
*346 net58
*347 net59
*348 net6
*349 net60
*350 net61
*351 net62
*352 net63
*353 net64
*354 net65
*355 net66
*356 net67
*357 net68
*358 net69
*359 net7
*360 net70
*361 net71
*362 net72
*363 net73
*364 net74
*365 net75
*366 net76
*367 net77
*368 net78
*369 net79
*370 net8
*371 net80
*372 net81
*373 net82
*374 net83
*375 net84
*376 net85
*377 net86
*378 net87
*379 net88
*380 net89
*381 net9
*382 net90
*383 net91
*384 FILLER_0_0_109
*385 FILLER_0_0_113
*386 FILLER_0_0_125
*387 FILLER_0_0_137
*388 FILLER_0_0_141
*389 FILLER_0_0_15
*390 FILLER_0_0_153
*391 FILLER_0_0_165
*392 FILLER_0_0_169
*393 FILLER_0_0_181
*394 FILLER_0_0_193
*395 FILLER_0_0_197
*396 FILLER_0_0_209
*397 FILLER_0_0_221
*398 FILLER_0_0_225
*399 FILLER_0_0_237
*400 FILLER_0_0_249
*401 FILLER_0_0_253
*402 FILLER_0_0_265
*403 FILLER_0_0_27
*404 FILLER_0_0_277
*405 FILLER_0_0_281
*406 FILLER_0_0_29
*407 FILLER_0_0_293
*408 FILLER_0_0_3
*409 FILLER_0_0_305
*410 FILLER_0_0_309
*411 FILLER_0_0_321
*412 FILLER_0_0_333
*413 FILLER_0_0_337
*414 FILLER_0_0_349
*415 FILLER_0_0_41
*416 FILLER_0_0_53
*417 FILLER_0_0_57
*418 FILLER_0_0_69
*419 FILLER_0_0_81
*420 FILLER_0_0_85
*421 FILLER_0_0_97
*422 FILLER_0_10_109
*423 FILLER_0_10_121
*424 FILLER_0_10_133
*425 FILLER_0_10_139
*426 FILLER_0_10_141
*427 FILLER_0_10_15
*428 FILLER_0_10_153
*429 FILLER_0_10_165
*430 FILLER_0_10_177
*431 FILLER_0_10_189
*432 FILLER_0_10_195
*433 FILLER_0_10_197
*434 FILLER_0_10_209
*435 FILLER_0_10_221
*436 FILLER_0_10_233
*437 FILLER_0_10_245
*438 FILLER_0_10_251
*439 FILLER_0_10_253
*440 FILLER_0_10_265
*441 FILLER_0_10_27
*442 FILLER_0_10_277
*443 FILLER_0_10_289
*444 FILLER_0_10_29
*445 FILLER_0_10_3
*446 FILLER_0_10_301
*447 FILLER_0_10_307
*448 FILLER_0_10_309
*449 FILLER_0_10_321
*450 FILLER_0_10_333
*451 FILLER_0_10_345
*452 FILLER_0_10_41
*453 FILLER_0_10_53
*454 FILLER_0_10_65
*455 FILLER_0_10_77
*456 FILLER_0_10_83
*457 FILLER_0_10_85
*458 FILLER_0_10_97
*459 FILLER_0_11_105
*460 FILLER_0_11_111
*461 FILLER_0_11_113
*462 FILLER_0_11_125
*463 FILLER_0_11_137
*464 FILLER_0_11_149
*465 FILLER_0_11_15
*466 FILLER_0_11_161
*467 FILLER_0_11_167
*468 FILLER_0_11_169
*469 FILLER_0_11_181
*470 FILLER_0_11_193
*471 FILLER_0_11_205
*472 FILLER_0_11_217
*473 FILLER_0_11_223
*474 FILLER_0_11_225
*475 FILLER_0_11_237
*476 FILLER_0_11_249
*477 FILLER_0_11_261
*478 FILLER_0_11_27
*479 FILLER_0_11_273
*480 FILLER_0_11_279
*481 FILLER_0_11_281
*482 FILLER_0_11_293
*483 FILLER_0_11_3
*484 FILLER_0_11_305
*485 FILLER_0_11_317
*486 FILLER_0_11_329
*487 FILLER_0_11_335
*488 FILLER_0_11_337
*489 FILLER_0_11_349
*490 FILLER_0_11_39
*491 FILLER_0_11_51
*492 FILLER_0_11_55
*493 FILLER_0_11_57
*494 FILLER_0_11_69
*495 FILLER_0_11_81
*496 FILLER_0_11_93
*497 FILLER_0_12_109
*498 FILLER_0_12_121
*499 FILLER_0_12_133
*500 FILLER_0_12_139
*501 FILLER_0_12_141
*502 FILLER_0_12_15
*503 FILLER_0_12_153
*504 FILLER_0_12_165
*505 FILLER_0_12_177
*506 FILLER_0_12_189
*507 FILLER_0_12_195
*508 FILLER_0_12_197
*509 FILLER_0_12_209
*510 FILLER_0_12_221
*511 FILLER_0_12_233
*512 FILLER_0_12_245
*513 FILLER_0_12_251
*514 FILLER_0_12_253
*515 FILLER_0_12_265
*516 FILLER_0_12_27
*517 FILLER_0_12_277
*518 FILLER_0_12_289
*519 FILLER_0_12_29
*520 FILLER_0_12_3
*521 FILLER_0_12_301
*522 FILLER_0_12_307
*523 FILLER_0_12_309
*524 FILLER_0_12_321
*525 FILLER_0_12_333
*526 FILLER_0_12_345
*527 FILLER_0_12_41
*528 FILLER_0_12_53
*529 FILLER_0_12_65
*530 FILLER_0_12_77
*531 FILLER_0_12_83
*532 FILLER_0_12_85
*533 FILLER_0_12_97
*534 FILLER_0_13_105
*535 FILLER_0_13_111
*536 FILLER_0_13_113
*537 FILLER_0_13_125
*538 FILLER_0_13_137
*539 FILLER_0_13_149
*540 FILLER_0_13_15
*541 FILLER_0_13_161
*542 FILLER_0_13_167
*543 FILLER_0_13_169
*544 FILLER_0_13_181
*545 FILLER_0_13_193
*546 FILLER_0_13_205
*547 FILLER_0_13_217
*548 FILLER_0_13_223
*549 FILLER_0_13_225
*550 FILLER_0_13_237
*551 FILLER_0_13_249
*552 FILLER_0_13_261
*553 FILLER_0_13_27
*554 FILLER_0_13_273
*555 FILLER_0_13_279
*556 FILLER_0_13_281
*557 FILLER_0_13_293
*558 FILLER_0_13_3
*559 FILLER_0_13_305
*560 FILLER_0_13_317
*561 FILLER_0_13_329
*562 FILLER_0_13_335
*563 FILLER_0_13_337
*564 FILLER_0_13_349
*565 FILLER_0_13_39
*566 FILLER_0_13_51
*567 FILLER_0_13_55
*568 FILLER_0_13_57
*569 FILLER_0_13_69
*570 FILLER_0_13_81
*571 FILLER_0_13_93
*572 FILLER_0_14_109
*573 FILLER_0_14_121
*574 FILLER_0_14_133
*575 FILLER_0_14_139
*576 FILLER_0_14_141
*577 FILLER_0_14_15
*578 FILLER_0_14_153
*579 FILLER_0_14_165
*580 FILLER_0_14_177
*581 FILLER_0_14_189
*582 FILLER_0_14_195
*583 FILLER_0_14_197
*584 FILLER_0_14_209
*585 FILLER_0_14_221
*586 FILLER_0_14_233
*587 FILLER_0_14_245
*588 FILLER_0_14_251
*589 FILLER_0_14_253
*590 FILLER_0_14_265
*591 FILLER_0_14_27
*592 FILLER_0_14_277
*593 FILLER_0_14_289
*594 FILLER_0_14_29
*595 FILLER_0_14_3
*596 FILLER_0_14_301
*597 FILLER_0_14_307
*598 FILLER_0_14_309
*599 FILLER_0_14_321
*600 FILLER_0_14_333
*601 FILLER_0_14_345
*602 FILLER_0_14_41
*603 FILLER_0_14_53
*604 FILLER_0_14_65
*605 FILLER_0_14_77
*606 FILLER_0_14_83
*607 FILLER_0_14_85
*608 FILLER_0_14_97
*609 FILLER_0_15_105
*610 FILLER_0_15_111
*611 FILLER_0_15_113
*612 FILLER_0_15_125
*613 FILLER_0_15_137
*614 FILLER_0_15_149
*615 FILLER_0_15_15
*616 FILLER_0_15_161
*617 FILLER_0_15_167
*618 FILLER_0_15_169
*619 FILLER_0_15_181
*620 FILLER_0_15_193
*621 FILLER_0_15_205
*622 FILLER_0_15_217
*623 FILLER_0_15_223
*624 FILLER_0_15_225
*625 FILLER_0_15_237
*626 FILLER_0_15_249
*627 FILLER_0_15_261
*628 FILLER_0_15_27
*629 FILLER_0_15_273
*630 FILLER_0_15_279
*631 FILLER_0_15_281
*632 FILLER_0_15_293
*633 FILLER_0_15_3
*634 FILLER_0_15_305
*635 FILLER_0_15_317
*636 FILLER_0_15_329
*637 FILLER_0_15_335
*638 FILLER_0_15_337
*639 FILLER_0_15_349
*640 FILLER_0_15_39
*641 FILLER_0_15_51
*642 FILLER_0_15_55
*643 FILLER_0_15_57
*644 FILLER_0_15_69
*645 FILLER_0_15_81
*646 FILLER_0_15_93
*647 FILLER_0_16_109
*648 FILLER_0_16_121
*649 FILLER_0_16_133
*650 FILLER_0_16_139
*651 FILLER_0_16_141
*652 FILLER_0_16_15
*653 FILLER_0_16_153
*654 FILLER_0_16_165
*655 FILLER_0_16_177
*656 FILLER_0_16_189
*657 FILLER_0_16_195
*658 FILLER_0_16_197
*659 FILLER_0_16_209
*660 FILLER_0_16_221
*661 FILLER_0_16_233
*662 FILLER_0_16_245
*663 FILLER_0_16_251
*664 FILLER_0_16_253
*665 FILLER_0_16_265
*666 FILLER_0_16_27
*667 FILLER_0_16_277
*668 FILLER_0_16_289
*669 FILLER_0_16_29
*670 FILLER_0_16_3
*671 FILLER_0_16_301
*672 FILLER_0_16_307
*673 FILLER_0_16_309
*674 FILLER_0_16_321
*675 FILLER_0_16_333
*676 FILLER_0_16_345
*677 FILLER_0_16_41
*678 FILLER_0_16_53
*679 FILLER_0_16_65
*680 FILLER_0_16_77
*681 FILLER_0_16_83
*682 FILLER_0_16_85
*683 FILLER_0_16_97
*684 FILLER_0_17_105
*685 FILLER_0_17_111
*686 FILLER_0_17_113
*687 FILLER_0_17_125
*688 FILLER_0_17_137
*689 FILLER_0_17_149
*690 FILLER_0_17_15
*691 FILLER_0_17_161
*692 FILLER_0_17_167
*693 FILLER_0_17_169
*694 FILLER_0_17_181
*695 FILLER_0_17_193
*696 FILLER_0_17_205
*697 FILLER_0_17_217
*698 FILLER_0_17_223
*699 FILLER_0_17_225
*700 FILLER_0_17_237
*701 FILLER_0_17_249
*702 FILLER_0_17_261
*703 FILLER_0_17_27
*704 FILLER_0_17_273
*705 FILLER_0_17_279
*706 FILLER_0_17_281
*707 FILLER_0_17_293
*708 FILLER_0_17_3
*709 FILLER_0_17_305
*710 FILLER_0_17_317
*711 FILLER_0_17_329
*712 FILLER_0_17_335
*713 FILLER_0_17_337
*714 FILLER_0_17_349
*715 FILLER_0_17_39
*716 FILLER_0_17_51
*717 FILLER_0_17_55
*718 FILLER_0_17_57
*719 FILLER_0_17_69
*720 FILLER_0_17_81
*721 FILLER_0_17_93
*722 FILLER_0_18_109
*723 FILLER_0_18_121
*724 FILLER_0_18_133
*725 FILLER_0_18_139
*726 FILLER_0_18_141
*727 FILLER_0_18_15
*728 FILLER_0_18_153
*729 FILLER_0_18_165
*730 FILLER_0_18_177
*731 FILLER_0_18_189
*732 FILLER_0_18_195
*733 FILLER_0_18_197
*734 FILLER_0_18_209
*735 FILLER_0_18_221
*736 FILLER_0_18_233
*737 FILLER_0_18_245
*738 FILLER_0_18_251
*739 FILLER_0_18_253
*740 FILLER_0_18_265
*741 FILLER_0_18_27
*742 FILLER_0_18_277
*743 FILLER_0_18_289
*744 FILLER_0_18_29
*745 FILLER_0_18_3
*746 FILLER_0_18_301
*747 FILLER_0_18_307
*748 FILLER_0_18_309
*749 FILLER_0_18_321
*750 FILLER_0_18_333
*751 FILLER_0_18_345
*752 FILLER_0_18_41
*753 FILLER_0_18_53
*754 FILLER_0_18_65
*755 FILLER_0_18_77
*756 FILLER_0_18_83
*757 FILLER_0_18_85
*758 FILLER_0_18_97
*759 FILLER_0_19_105
*760 FILLER_0_19_111
*761 FILLER_0_19_113
*762 FILLER_0_19_125
*763 FILLER_0_19_137
*764 FILLER_0_19_145
*765 FILLER_0_19_15
*766 FILLER_0_19_164
*767 FILLER_0_19_169
*768 FILLER_0_19_181
*769 FILLER_0_19_217
*770 FILLER_0_19_223
*771 FILLER_0_19_225
*772 FILLER_0_19_237
*773 FILLER_0_19_249
*774 FILLER_0_19_261
*775 FILLER_0_19_27
*776 FILLER_0_19_273
*777 FILLER_0_19_279
*778 FILLER_0_19_281
*779 FILLER_0_19_293
*780 FILLER_0_19_3
*781 FILLER_0_19_305
*782 FILLER_0_19_317
*783 FILLER_0_19_329
*784 FILLER_0_19_335
*785 FILLER_0_19_337
*786 FILLER_0_19_349
*787 FILLER_0_19_39
*788 FILLER_0_19_51
*789 FILLER_0_19_55
*790 FILLER_0_19_57
*791 FILLER_0_19_69
*792 FILLER_0_19_81
*793 FILLER_0_19_93
*794 FILLER_0_1_105
*795 FILLER_0_1_111
*796 FILLER_0_1_113
*797 FILLER_0_1_125
*798 FILLER_0_1_137
*799 FILLER_0_1_149
*800 FILLER_0_1_15
*801 FILLER_0_1_161
*802 FILLER_0_1_167
*803 FILLER_0_1_169
*804 FILLER_0_1_181
*805 FILLER_0_1_193
*806 FILLER_0_1_205
*807 FILLER_0_1_217
*808 FILLER_0_1_223
*809 FILLER_0_1_225
*810 FILLER_0_1_237
*811 FILLER_0_1_249
*812 FILLER_0_1_261
*813 FILLER_0_1_27
*814 FILLER_0_1_273
*815 FILLER_0_1_279
*816 FILLER_0_1_281
*817 FILLER_0_1_293
*818 FILLER_0_1_3
*819 FILLER_0_1_305
*820 FILLER_0_1_317
*821 FILLER_0_1_329
*822 FILLER_0_1_335
*823 FILLER_0_1_337
*824 FILLER_0_1_349
*825 FILLER_0_1_39
*826 FILLER_0_1_51
*827 FILLER_0_1_55
*828 FILLER_0_1_57
*829 FILLER_0_1_69
*830 FILLER_0_1_81
*831 FILLER_0_1_93
*832 FILLER_0_20_105
*833 FILLER_0_20_131
*834 FILLER_0_20_139
*835 FILLER_0_20_141
*836 FILLER_0_20_15
*837 FILLER_0_20_153
*838 FILLER_0_20_170
*839 FILLER_0_20_176
*840 FILLER_0_20_185
*841 FILLER_0_20_193
*842 FILLER_0_20_237
*843 FILLER_0_20_241
*844 FILLER_0_20_250
*845 FILLER_0_20_253
*846 FILLER_0_20_265
*847 FILLER_0_20_27
*848 FILLER_0_20_277
*849 FILLER_0_20_289
*850 FILLER_0_20_29
*851 FILLER_0_20_3
*852 FILLER_0_20_301
*853 FILLER_0_20_307
*854 FILLER_0_20_309
*855 FILLER_0_20_321
*856 FILLER_0_20_333
*857 FILLER_0_20_345
*858 FILLER_0_20_41
*859 FILLER_0_20_53
*860 FILLER_0_20_65
*861 FILLER_0_20_77
*862 FILLER_0_20_83
*863 FILLER_0_20_85
*864 FILLER_0_20_97
*865 FILLER_0_21_101
*866 FILLER_0_21_113
*867 FILLER_0_21_135
*868 FILLER_0_21_15
*869 FILLER_0_21_177
*870 FILLER_0_21_215
*871 FILLER_0_21_27
*872 FILLER_0_21_273
*873 FILLER_0_21_279
*874 FILLER_0_21_281
*875 FILLER_0_21_293
*876 FILLER_0_21_3
*877 FILLER_0_21_305
*878 FILLER_0_21_317
*879 FILLER_0_21_329
*880 FILLER_0_21_335
*881 FILLER_0_21_337
*882 FILLER_0_21_349
*883 FILLER_0_21_39
*884 FILLER_0_21_51
*885 FILLER_0_21_55
*886 FILLER_0_21_57
*887 FILLER_0_21_69
*888 FILLER_0_21_75
*889 FILLER_0_21_92
*890 FILLER_0_22_141
*891 FILLER_0_22_147
*892 FILLER_0_22_15
*893 FILLER_0_22_164
*894 FILLER_0_22_176
*895 FILLER_0_22_245
*896 FILLER_0_22_251
*897 FILLER_0_22_27
*898 FILLER_0_22_277
*899 FILLER_0_22_289
*900 FILLER_0_22_29
*901 FILLER_0_22_3
*902 FILLER_0_22_301
*903 FILLER_0_22_307
*904 FILLER_0_22_309
*905 FILLER_0_22_321
*906 FILLER_0_22_333
*907 FILLER_0_22_345
*908 FILLER_0_22_41
*909 FILLER_0_22_53
*910 FILLER_0_22_65
*911 FILLER_0_22_77
*912 FILLER_0_22_83
*913 FILLER_0_22_85
*914 FILLER_0_22_91
*915 FILLER_0_23_105
*916 FILLER_0_23_111
*917 FILLER_0_23_113
*918 FILLER_0_23_121
*919 FILLER_0_23_146
*920 FILLER_0_23_15
*921 FILLER_0_23_158
*922 FILLER_0_23_166
*923 FILLER_0_23_193
*924 FILLER_0_23_205
*925 FILLER_0_23_217
*926 FILLER_0_23_223
*927 FILLER_0_23_27
*928 FILLER_0_23_273
*929 FILLER_0_23_279
*930 FILLER_0_23_281
*931 FILLER_0_23_293
*932 FILLER_0_23_3
*933 FILLER_0_23_305
*934 FILLER_0_23_317
*935 FILLER_0_23_329
*936 FILLER_0_23_335
*937 FILLER_0_23_337
*938 FILLER_0_23_349
*939 FILLER_0_23_39
*940 FILLER_0_23_51
*941 FILLER_0_23_55
*942 FILLER_0_23_57
*943 FILLER_0_23_69
*944 FILLER_0_24_111
*945 FILLER_0_24_123
*946 FILLER_0_24_131
*947 FILLER_0_24_138
*948 FILLER_0_24_147
*949 FILLER_0_24_15
*950 FILLER_0_24_159
*951 FILLER_0_24_192
*952 FILLER_0_24_197
*953 FILLER_0_24_203
*954 FILLER_0_24_234
*955 FILLER_0_24_246
*956 FILLER_0_24_27
*957 FILLER_0_24_277
*958 FILLER_0_24_289
*959 FILLER_0_24_29
*960 FILLER_0_24_3
*961 FILLER_0_24_309
*962 FILLER_0_24_318
*963 FILLER_0_24_330
*964 FILLER_0_24_342
*965 FILLER_0_24_350
*966 FILLER_0_24_41
*967 FILLER_0_24_53
*968 FILLER_0_24_77
*969 FILLER_0_24_83
*970 FILLER_0_24_93
*971 FILLER_0_25_107
*972 FILLER_0_25_111
*973 FILLER_0_25_113
*974 FILLER_0_25_121
*975 FILLER_0_25_129
*976 FILLER_0_25_15
*977 FILLER_0_25_153
*978 FILLER_0_25_165
*979 FILLER_0_25_169
*980 FILLER_0_25_173
*981 FILLER_0_25_214
*982 FILLER_0_25_223
*983 FILLER_0_25_242
*984 FILLER_0_25_258
*985 FILLER_0_25_27
*986 FILLER_0_25_275
*987 FILLER_0_25_279
*988 FILLER_0_25_281
*989 FILLER_0_25_3
*990 FILLER_0_25_324
*991 FILLER_0_25_337
*992 FILLER_0_25_349
*993 FILLER_0_25_39
*994 FILLER_0_25_51
*995 FILLER_0_25_55
*996 FILLER_0_25_57
*997 FILLER_0_25_61
*998 FILLER_0_25_86
*999 FILLER_0_25_90
*1000 FILLER_0_26_123
*1001 FILLER_0_26_141
*1002 FILLER_0_26_15
*1003 FILLER_0_26_151
*1004 FILLER_0_26_155
*1005 FILLER_0_26_187
*1006 FILLER_0_26_221
*1007 FILLER_0_26_232
*1008 FILLER_0_26_253
*1009 FILLER_0_26_262
*1010 FILLER_0_26_27
*1011 FILLER_0_26_29
*1012 FILLER_0_26_3
*1013 FILLER_0_26_303
*1014 FILLER_0_26_307
*1015 FILLER_0_26_325
*1016 FILLER_0_26_337
*1017 FILLER_0_26_349
*1018 FILLER_0_26_41
*1019 FILLER_0_26_63
*1020 FILLER_0_26_67
*1021 FILLER_0_26_85
*1022 FILLER_0_27_124
*1023 FILLER_0_27_136
*1024 FILLER_0_27_15
*1025 FILLER_0_27_163
*1026 FILLER_0_27_167
*1027 FILLER_0_27_183
*1028 FILLER_0_27_187
*1029 FILLER_0_27_204
*1030 FILLER_0_27_233
*1031 FILLER_0_27_27
*1032 FILLER_0_27_279
*1033 FILLER_0_27_297
*1034 FILLER_0_27_3
*1035 FILLER_0_27_315
*1036 FILLER_0_27_331
*1037 FILLER_0_27_335
*1038 FILLER_0_27_337
*1039 FILLER_0_27_349
*1040 FILLER_0_27_39
*1041 FILLER_0_27_73
*1042 FILLER_0_28_101
*1043 FILLER_0_28_130
*1044 FILLER_0_28_138
*1045 FILLER_0_28_141
*1046 FILLER_0_28_149
*1047 FILLER_0_28_15
*1048 FILLER_0_28_175
*1049 FILLER_0_28_187
*1050 FILLER_0_28_195
*1051 FILLER_0_28_205
*1052 FILLER_0_28_217
*1053 FILLER_0_28_229
*1054 FILLER_0_28_261
*1055 FILLER_0_28_269
*1056 FILLER_0_28_27
*1057 FILLER_0_28_287
*1058 FILLER_0_28_29
*1059 FILLER_0_28_299
*1060 FILLER_0_28_3
*1061 FILLER_0_28_307
*1062 FILLER_0_28_325
*1063 FILLER_0_28_337
*1064 FILLER_0_28_349
*1065 FILLER_0_28_61
*1066 FILLER_0_28_67
*1067 FILLER_0_29_103
*1068 FILLER_0_29_111
*1069 FILLER_0_29_128
*1070 FILLER_0_29_15
*1071 FILLER_0_29_150
*1072 FILLER_0_29_162
*1073 FILLER_0_29_189
*1074 FILLER_0_29_217
*1075 FILLER_0_29_223
*1076 FILLER_0_29_225
*1077 FILLER_0_29_234
*1078 FILLER_0_29_246
*1079 FILLER_0_29_258
*1080 FILLER_0_29_27
*1081 FILLER_0_29_270
*1082 FILLER_0_29_281
*1083 FILLER_0_29_295
*1084 FILLER_0_29_3
*1085 FILLER_0_29_31
*1086 FILLER_0_29_319
*1087 FILLER_0_29_331
*1088 FILLER_0_29_335
*1089 FILLER_0_29_337
*1090 FILLER_0_29_349
*1091 FILLER_0_29_48
*1092 FILLER_0_29_65
*1093 FILLER_0_29_69
*1094 FILLER_0_29_84
*1095 FILLER_0_29_95
*1096 FILLER_0_2_109
*1097 FILLER_0_2_121
*1098 FILLER_0_2_133
*1099 FILLER_0_2_139
*1100 FILLER_0_2_141
*1101 FILLER_0_2_15
*1102 FILLER_0_2_153
*1103 FILLER_0_2_165
*1104 FILLER_0_2_177
*1105 FILLER_0_2_189
*1106 FILLER_0_2_195
*1107 FILLER_0_2_197
*1108 FILLER_0_2_209
*1109 FILLER_0_2_221
*1110 FILLER_0_2_233
*1111 FILLER_0_2_245
*1112 FILLER_0_2_251
*1113 FILLER_0_2_253
*1114 FILLER_0_2_265
*1115 FILLER_0_2_27
*1116 FILLER_0_2_277
*1117 FILLER_0_2_289
*1118 FILLER_0_2_29
*1119 FILLER_0_2_3
*1120 FILLER_0_2_301
*1121 FILLER_0_2_307
*1122 FILLER_0_2_309
*1123 FILLER_0_2_321
*1124 FILLER_0_2_333
*1125 FILLER_0_2_345
*1126 FILLER_0_2_41
*1127 FILLER_0_2_53
*1128 FILLER_0_2_65
*1129 FILLER_0_2_77
*1130 FILLER_0_2_83
*1131 FILLER_0_2_85
*1132 FILLER_0_2_97
*1133 FILLER_0_30_15
*1134 FILLER_0_30_164
*1135 FILLER_0_30_172
*1136 FILLER_0_30_189
*1137 FILLER_0_30_195
*1138 FILLER_0_30_205
*1139 FILLER_0_30_216
*1140 FILLER_0_30_228
*1141 FILLER_0_30_246
*1142 FILLER_0_30_253
*1143 FILLER_0_30_261
*1144 FILLER_0_30_27
*1145 FILLER_0_30_285
*1146 FILLER_0_30_3
*1147 FILLER_0_30_302
*1148 FILLER_0_30_309
*1149 FILLER_0_30_321
*1150 FILLER_0_30_333
*1151 FILLER_0_30_345
*1152 FILLER_0_30_45
*1153 FILLER_0_30_63
*1154 FILLER_0_30_71
*1155 FILLER_0_30_76
*1156 FILLER_0_30_80
*1157 FILLER_0_30_85
*1158 FILLER_0_30_89
*1159 FILLER_0_31_108
*1160 FILLER_0_31_120
*1161 FILLER_0_31_15
*1162 FILLER_0_31_165
*1163 FILLER_0_31_169
*1164 FILLER_0_31_197
*1165 FILLER_0_31_217
*1166 FILLER_0_31_223
*1167 FILLER_0_31_23
*1168 FILLER_0_31_241
*1169 FILLER_0_31_27
*1170 FILLER_0_31_275
*1171 FILLER_0_31_279
*1172 FILLER_0_31_281
*1173 FILLER_0_31_3
*1174 FILLER_0_31_321
*1175 FILLER_0_31_333
*1176 FILLER_0_31_337
*1177 FILLER_0_31_349
*1178 FILLER_0_31_47
*1179 FILLER_0_31_55
*1180 FILLER_0_31_57
*1181 FILLER_0_31_69
*1182 FILLER_0_31_87
*1183 FILLER_0_31_91
*1184 FILLER_0_32_11
*1185 FILLER_0_32_124
*1186 FILLER_0_32_133
*1187 FILLER_0_32_139
*1188 FILLER_0_32_149
*1189 FILLER_0_32_179
*1190 FILLER_0_32_191
*1191 FILLER_0_32_195
*1192 FILLER_0_32_213
*1193 FILLER_0_32_251
*1194 FILLER_0_32_253
*1195 FILLER_0_32_283
*1196 FILLER_0_32_29
*1197 FILLER_0_32_294
*1198 FILLER_0_32_3
*1199 FILLER_0_32_325
*1200 FILLER_0_32_337
*1201 FILLER_0_32_349
*1202 FILLER_0_32_40
*1203 FILLER_0_32_56
*1204 FILLER_0_32_64
*1205 FILLER_0_32_83
*1206 FILLER_0_33_100
*1207 FILLER_0_33_113
*1208 FILLER_0_33_125
*1209 FILLER_0_33_149
*1210 FILLER_0_33_187
*1211 FILLER_0_33_191
*1212 FILLER_0_33_225
*1213 FILLER_0_33_229
*1214 FILLER_0_33_246
*1215 FILLER_0_33_264
*1216 FILLER_0_33_276
*1217 FILLER_0_33_297
*1218 FILLER_0_33_3
*1219 FILLER_0_33_330
*1220 FILLER_0_33_337
*1221 FILLER_0_33_349
*1222 FILLER_0_33_48
*1223 FILLER_0_33_57
*1224 FILLER_0_33_65
*1225 FILLER_0_33_9
*1226 FILLER_0_34_107
*1227 FILLER_0_34_119
*1228 FILLER_0_34_131
*1229 FILLER_0_34_139
*1230 FILLER_0_34_141
*1231 FILLER_0_34_147
*1232 FILLER_0_34_190
*1233 FILLER_0_34_197
*1234 FILLER_0_34_224
*1235 FILLER_0_34_232
*1236 FILLER_0_34_249
*1237 FILLER_0_34_275
*1238 FILLER_0_34_287
*1239 FILLER_0_34_29
*1240 FILLER_0_34_3
*1241 FILLER_0_34_325
*1242 FILLER_0_34_33
*1243 FILLER_0_34_337
*1244 FILLER_0_34_349
*1245 FILLER_0_34_45
*1246 FILLER_0_34_57
*1247 FILLER_0_34_61
*1248 FILLER_0_34_79
*1249 FILLER_0_34_90
*1250 FILLER_0_35_123
*1251 FILLER_0_35_135
*1252 FILLER_0_35_147
*1253 FILLER_0_35_151
*1254 FILLER_0_35_183
*1255 FILLER_0_35_219
*1256 FILLER_0_35_223
*1257 FILLER_0_35_225
*1258 FILLER_0_35_262
*1259 FILLER_0_35_274
*1260 FILLER_0_35_3
*1261 FILLER_0_35_311
*1262 FILLER_0_35_323
*1263 FILLER_0_35_335
*1264 FILLER_0_35_337
*1265 FILLER_0_35_349
*1266 FILLER_0_35_48
*1267 FILLER_0_35_57
*1268 FILLER_0_35_81
*1269 FILLER_0_35_86
*1270 FILLER_0_36_101
*1271 FILLER_0_36_11
*1272 FILLER_0_36_134
*1273 FILLER_0_36_141
*1274 FILLER_0_36_229
*1275 FILLER_0_36_235
*1276 FILLER_0_36_3
*1277 FILLER_0_36_305
*1278 FILLER_0_36_309
*1279 FILLER_0_36_321
*1280 FILLER_0_36_33
*1281 FILLER_0_36_333
*1282 FILLER_0_36_345
*1283 FILLER_0_36_37
*1284 FILLER_0_36_82
*1285 FILLER_0_37_122
*1286 FILLER_0_37_131
*1287 FILLER_0_37_135
*1288 FILLER_0_37_185
*1289 FILLER_0_37_193
*1290 FILLER_0_37_220
*1291 FILLER_0_37_247
*1292 FILLER_0_37_251
*1293 FILLER_0_37_268
*1294 FILLER_0_37_3
*1295 FILLER_0_37_313
*1296 FILLER_0_37_331
*1297 FILLER_0_37_335
*1298 FILLER_0_37_337
*1299 FILLER_0_37_349
*1300 FILLER_0_37_43
*1301 FILLER_0_37_55
*1302 FILLER_0_37_57
*1303 FILLER_0_37_63
*1304 FILLER_0_37_69
*1305 FILLER_0_37_76
*1306 FILLER_0_37_83
*1307 FILLER_0_37_88
*1308 FILLER_0_38_101
*1309 FILLER_0_38_107
*1310 FILLER_0_38_118
*1311 FILLER_0_38_123
*1312 FILLER_0_38_135
*1313 FILLER_0_38_139
*1314 FILLER_0_38_14
*1315 FILLER_0_38_141
*1316 FILLER_0_38_145
*1317 FILLER_0_38_166
*1318 FILLER_0_38_185
*1319 FILLER_0_38_197
*1320 FILLER_0_38_219
*1321 FILLER_0_38_223
*1322 FILLER_0_38_225
*1323 FILLER_0_38_237
*1324 FILLER_0_38_249
*1325 FILLER_0_38_261
*1326 FILLER_0_38_269
*1327 FILLER_0_38_3
*1328 FILLER_0_38_305
*1329 FILLER_0_38_319
*1330 FILLER_0_38_326
*1331 FILLER_0_38_334
*1332 FILLER_0_38_337
*1333 FILLER_0_38_349
*1334 FILLER_0_38_40
*1335 FILLER_0_38_46
*1336 FILLER_0_38_50
*1337 FILLER_0_38_54
*1338 FILLER_0_38_57
*1339 FILLER_0_38_62
*1340 FILLER_0_38_68
*1341 FILLER_0_38_76
*1342 FILLER_0_38_81
*1343 FILLER_0_38_85
*1344 FILLER_0_38_93
*1345 FILLER_0_3_105
*1346 FILLER_0_3_111
*1347 FILLER_0_3_113
*1348 FILLER_0_3_125
*1349 FILLER_0_3_137
*1350 FILLER_0_3_149
*1351 FILLER_0_3_15
*1352 FILLER_0_3_161
*1353 FILLER_0_3_167
*1354 FILLER_0_3_169
*1355 FILLER_0_3_181
*1356 FILLER_0_3_193
*1357 FILLER_0_3_205
*1358 FILLER_0_3_217
*1359 FILLER_0_3_223
*1360 FILLER_0_3_225
*1361 FILLER_0_3_237
*1362 FILLER_0_3_249
*1363 FILLER_0_3_261
*1364 FILLER_0_3_27
*1365 FILLER_0_3_273
*1366 FILLER_0_3_279
*1367 FILLER_0_3_281
*1368 FILLER_0_3_293
*1369 FILLER_0_3_3
*1370 FILLER_0_3_305
*1371 FILLER_0_3_317
*1372 FILLER_0_3_329
*1373 FILLER_0_3_335
*1374 FILLER_0_3_337
*1375 FILLER_0_3_349
*1376 FILLER_0_3_39
*1377 FILLER_0_3_51
*1378 FILLER_0_3_55
*1379 FILLER_0_3_57
*1380 FILLER_0_3_69
*1381 FILLER_0_3_81
*1382 FILLER_0_3_93
*1383 FILLER_0_4_109
*1384 FILLER_0_4_121
*1385 FILLER_0_4_133
*1386 FILLER_0_4_139
*1387 FILLER_0_4_141
*1388 FILLER_0_4_15
*1389 FILLER_0_4_153
*1390 FILLER_0_4_165
*1391 FILLER_0_4_177
*1392 FILLER_0_4_189
*1393 FILLER_0_4_195
*1394 FILLER_0_4_197
*1395 FILLER_0_4_209
*1396 FILLER_0_4_221
*1397 FILLER_0_4_233
*1398 FILLER_0_4_245
*1399 FILLER_0_4_251
*1400 FILLER_0_4_253
*1401 FILLER_0_4_265
*1402 FILLER_0_4_27
*1403 FILLER_0_4_277
*1404 FILLER_0_4_289
*1405 FILLER_0_4_29
*1406 FILLER_0_4_3
*1407 FILLER_0_4_301
*1408 FILLER_0_4_307
*1409 FILLER_0_4_309
*1410 FILLER_0_4_321
*1411 FILLER_0_4_333
*1412 FILLER_0_4_345
*1413 FILLER_0_4_41
*1414 FILLER_0_4_53
*1415 FILLER_0_4_65
*1416 FILLER_0_4_77
*1417 FILLER_0_4_83
*1418 FILLER_0_4_85
*1419 FILLER_0_4_97
*1420 FILLER_0_5_105
*1421 FILLER_0_5_111
*1422 FILLER_0_5_113
*1423 FILLER_0_5_125
*1424 FILLER_0_5_137
*1425 FILLER_0_5_149
*1426 FILLER_0_5_15
*1427 FILLER_0_5_161
*1428 FILLER_0_5_167
*1429 FILLER_0_5_169
*1430 FILLER_0_5_181
*1431 FILLER_0_5_193
*1432 FILLER_0_5_205
*1433 FILLER_0_5_217
*1434 FILLER_0_5_223
*1435 FILLER_0_5_225
*1436 FILLER_0_5_237
*1437 FILLER_0_5_249
*1438 FILLER_0_5_261
*1439 FILLER_0_5_27
*1440 FILLER_0_5_273
*1441 FILLER_0_5_279
*1442 FILLER_0_5_281
*1443 FILLER_0_5_293
*1444 FILLER_0_5_3
*1445 FILLER_0_5_305
*1446 FILLER_0_5_317
*1447 FILLER_0_5_329
*1448 FILLER_0_5_335
*1449 FILLER_0_5_337
*1450 FILLER_0_5_349
*1451 FILLER_0_5_39
*1452 FILLER_0_5_51
*1453 FILLER_0_5_55
*1454 FILLER_0_5_57
*1455 FILLER_0_5_69
*1456 FILLER_0_5_81
*1457 FILLER_0_5_93
*1458 FILLER_0_6_109
*1459 FILLER_0_6_121
*1460 FILLER_0_6_133
*1461 FILLER_0_6_139
*1462 FILLER_0_6_141
*1463 FILLER_0_6_15
*1464 FILLER_0_6_153
*1465 FILLER_0_6_165
*1466 FILLER_0_6_177
*1467 FILLER_0_6_189
*1468 FILLER_0_6_195
*1469 FILLER_0_6_197
*1470 FILLER_0_6_209
*1471 FILLER_0_6_221
*1472 FILLER_0_6_233
*1473 FILLER_0_6_245
*1474 FILLER_0_6_251
*1475 FILLER_0_6_253
*1476 FILLER_0_6_265
*1477 FILLER_0_6_27
*1478 FILLER_0_6_277
*1479 FILLER_0_6_289
*1480 FILLER_0_6_29
*1481 FILLER_0_6_3
*1482 FILLER_0_6_301
*1483 FILLER_0_6_307
*1484 FILLER_0_6_309
*1485 FILLER_0_6_321
*1486 FILLER_0_6_333
*1487 FILLER_0_6_345
*1488 FILLER_0_6_41
*1489 FILLER_0_6_53
*1490 FILLER_0_6_65
*1491 FILLER_0_6_77
*1492 FILLER_0_6_83
*1493 FILLER_0_6_85
*1494 FILLER_0_6_97
*1495 FILLER_0_7_105
*1496 FILLER_0_7_111
*1497 FILLER_0_7_113
*1498 FILLER_0_7_125
*1499 FILLER_0_7_137
*1500 FILLER_0_7_149
*1501 FILLER_0_7_15
*1502 FILLER_0_7_161
*1503 FILLER_0_7_167
*1504 FILLER_0_7_169
*1505 FILLER_0_7_181
*1506 FILLER_0_7_193
*1507 FILLER_0_7_205
*1508 FILLER_0_7_217
*1509 FILLER_0_7_223
*1510 FILLER_0_7_225
*1511 FILLER_0_7_237
*1512 FILLER_0_7_249
*1513 FILLER_0_7_261
*1514 FILLER_0_7_27
*1515 FILLER_0_7_273
*1516 FILLER_0_7_279
*1517 FILLER_0_7_281
*1518 FILLER_0_7_293
*1519 FILLER_0_7_3
*1520 FILLER_0_7_305
*1521 FILLER_0_7_317
*1522 FILLER_0_7_329
*1523 FILLER_0_7_335
*1524 FILLER_0_7_337
*1525 FILLER_0_7_349
*1526 FILLER_0_7_39
*1527 FILLER_0_7_51
*1528 FILLER_0_7_55
*1529 FILLER_0_7_57
*1530 FILLER_0_7_69
*1531 FILLER_0_7_81
*1532 FILLER_0_7_93
*1533 FILLER_0_8_109
*1534 FILLER_0_8_121
*1535 FILLER_0_8_133
*1536 FILLER_0_8_139
*1537 FILLER_0_8_141