*SPEF "ieee 1481-1999"
*DESIGN "tt_um_mjbella_led_matrix_driver"
*DATE "11:11:11 Fri 11 11, 1111"
*VENDOR "OpenRCX"
*PROGRAM "Parallel Extraction"
*VERSION "1.0"
*DESIGN_FLOW "NAME_SCOPE LOCAL" "PIN_CAP NONE"
*DIVIDER /
*DELIMITER :
*BUS_DELIMITER []
*T_UNIT 1 NS
*C_UNIT 1 PF
*R_UNIT 1 OHM
*L_UNIT 1 HENRY

*NAME_MAP
*3 clk
*4 ena
*5 rst_n
*6 ui_in[0]
*7 ui_in[1]
*8 ui_in[2]
*9 ui_in[3]
*10 ui_in[4]
*11 ui_in[5]
*12 ui_in[6]
*13 ui_in[7]
*14 uio_in[0]
*15 uio_in[1]
*16 uio_in[2]
*17 uio_in[3]
*18 uio_in[4]
*19 uio_in[5]
*20 uio_in[6]
*21 uio_in[7]
*22 net37
*23 net38
*24 net39
*25 net40
*26 net41
*27 net42
*28 net43
*29 net44
*30 uio_out[0]
*31 uio_out[1]
*32 uio_out[2]
*33 uio_out[3]
*34 uio_out[4]
*35 uio_out[5]
*36 uio_out[6]
*37 uio_out[7]
*38 uo_out[0]
*39 uo_out[1]
*40 uo_out[2]
*41 uo_out[3]
*42 uo_out[4]
*43 uo_out[5]
*44 uo_out[6]
*45 uo_out[7]
*46 _000_
*47 _001_
*48 _002_
*49 _003_
*50 _004_
*51 _005_
*52 _006_
*53 _007_
*54 _008_
*55 _009_
*56 _010_
*57 _011_
*58 _012_
*59 _013_
*60 _014_
*61 _015_
*62 _016_
*63 _017_
*64 _018_
*65 _019_
*66 _020_
*67 _021_
*68 _022_
*69 _023_
*70 _024_
*71 _025_
*72 _026_
*73 _027_
*74 _028_
*75 _029_
*76 _030_
*77 _031_
*78 _032_
*79 _033_
*80 _034_
*81 _035_
*82 _036_
*83 _037_
*84 _038_
*85 _039_
*86 _040_
*87 _041_
*88 _042_
*89 _043_
*90 _044_
*91 _045_
*92 _046_
*93 _047_
*94 _048_
*95 _049_
*96 _050_
*97 _051_
*98 _052_
*99 _053_
*100 _054_
*101 _055_
*102 _056_
*103 _057_
*104 _058_
*105 _059_
*106 _060_
*107 _061_
*108 _062_
*109 _063_
*110 _064_
*111 _065_
*112 _066_
*113 _067_
*114 _068_
*115 _069_
*116 _070_
*117 _071_
*118 _072_
*119 _073_
*120 _074_
*121 _075_
*122 _076_
*123 _077_
*124 _078_
*125 _079_
*126 _080_
*127 _081_
*128 _082_
*129 _083_
*130 _084_
*131 _085_
*132 _094_
*133 _095_
*134 _096_
*135 _097_
*136 _098_
*137 _099_
*138 _100_
*139 _101_
*140 _102_
*141 _103_
*142 _104_
*143 _105_
*144 _106_
*145 _107_
*146 _108_
*147 _109_
*148 _110_
*149 _111_
*150 _112_
*151 _113_
*152 _114_
*153 _115_
*154 _116_
*155 _117_
*156 _118_
*157 _119_
*158 _120_
*159 _121_
*160 _122_
*161 _123_
*162 _124_
*163 _125_
*164 _126_
*165 _127_
*166 _128_
*167 _129_
*168 _130_
*169 _131_
*170 _132_
*171 _133_
*172 _134_
*173 _135_
*174 _136_
*175 _137_
*176 _138_
*177 _139_
*178 _140_
*179 _141_
*180 _142_
*181 _143_
*182 _144_
*183 _145_
*184 _146_
*185 _147_
*186 _148_
*187 _149_
*188 _150_
*189 _151_
*190 _152_
*191 _153_
*192 _154_
*193 _155_
*194 _156_
*195 _157_
*196 _158_
*197 _159_
*198 _160_
*199 _161_
*200 _162_
*201 _163_
*202 _164_
*203 _165_
*204 _166_
*205 _167_
*206 _168_
*207 _169_
*208 _170_
*209 _171_
*210 _172_
*211 _173_
*212 _174_
*213 _175_
*214 _176_
*215 _177_
*216 _178_
*217 _179_
*218 _180_
*219 _181_
*220 _182_
*221 _183_
*222 _184_
*223 _185_
*224 _186_
*225 _187_
*226 _188_
*227 _189_
*228 _190_
*229 _191_
*230 _192_
*231 _193_
*232 _194_
*233 _195_
*234 _196_
*235 _197_
*236 _198_
*237 _199_
*238 _200_
*239 _201_
*240 _202_
*241 _203_
*242 _204_
*243 _205_
*244 _206_
*245 _207_
*246 _208_
*247 _209_
*248 _210_
*249 _211_
*250 _212_
*251 _213_
*252 _214_
*253 _215_
*254 _216_
*255 _217_
*256 _218_
*257 _219_
*258 _220_
*259 _221_
*260 _222_
*261 _223_
*262 _224_
*263 _225_
*264 _226_
*265 _227_
*266 _228_
*267 _229_
*268 _230_
*269 _231_
*270 _232_
*271 _233_
*272 _234_
*273 _235_
*274 _236_
*275 _237_
*276 _238_
*277 _239_
*278 _240_
*279 _241_
*280 _242_
*281 _243_
*282 _244_
*283 _245_
*284 _246_
*285 _247_
*286 _248_
*287 _249_
*288 _250_
*289 _251_
*290 _252_
*291 _253_
*292 _254_
*293 _255_
*294 _256_
*295 _257_
*296 _258_
*297 _259_
*298 _260_
*299 _261_
*300 _262_
*301 _263_
*302 _264_
*303 _265_
*304 _266_
*305 _267_
*306 _268_
*307 _269_
*308 blank
*309 cdec\.col_counter\[0\]
*310 cdec\.col_counter\[1\]
*311 cdec\.col_counter\[2\]
*312 cdec\.decode_out\[0\]
*313 cdec\.decode_out\[1\]
*314 cdec\.decode_out\[2\]
*315 cdec\.decode_out\[3\]
*316 cdec\.decode_out\[4\]
*317 cdec\.decode_out\[5\]
*318 cdec\.decode_out\[6\]
*319 cdec\.decode_out\[7\]
*320 chain\[0\]
*321 chain\[10\]
*322 chain\[11\]
*323 chain\[12\]
*324 chain\[13\]
*325 chain\[14\]
*326 chain\[15\]
*327 chain\[16\]
*328 chain\[17\]
*329 chain\[18\]
*330 chain\[19\]
*331 chain\[1\]
*332 chain\[20\]
*333 chain\[21\]
*334 chain\[22\]
*335 chain\[23\]
*336 chain\[24\]
*337 chain\[25\]
*338 chain\[26\]
*339 chain\[27\]
*340 chain\[28\]
*341 chain\[29\]
*342 chain\[2\]
*343 chain\[30\]
*344 chain\[31\]
*345 chain\[32\]
*346 chain\[33\]
*347 chain\[34\]
*348 chain\[35\]
*349 chain\[36\]
*350 chain\[37\]
*351 chain\[38\]
*352 chain\[39\]
*353 chain\[3\]
*354 chain\[40\]
*355 chain\[41\]
*356 chain\[42\]
*357 chain\[43\]
*358 chain\[44\]
*359 chain\[45\]
*360 chain\[46\]
*361 chain\[47\]
*362 chain\[48\]
*363 chain\[49\]
*364 chain\[4\]
*365 chain\[50\]
*366 chain\[51\]
*367 chain\[52\]
*368 chain\[53\]
*369 chain\[54\]
*370 chain\[55\]
*371 chain\[56\]
*372 chain\[57\]
*373 chain\[58\]
*374 chain\[59\]
*375 chain\[5\]
*376 chain\[60\]
*377 chain\[61\]
*378 chain\[62\]
*379 chain\[63\]
*380 chain\[6\]
*381 chain\[7\]
*382 chain\[8\]
*383 chain\[9\]
*384 clknet_0_clk
*385 clknet_1_0__leaf_clk
*386 clknet_1_1__leaf_clk
*387 cmux\.vbuf\[0\]
*388 cmux\.vbuf\[10\]
*389 cmux\.vbuf\[11\]
*390 cmux\.vbuf\[12\]
*391 cmux\.vbuf\[13\]
*392 cmux\.vbuf\[14\]
*393 cmux\.vbuf\[15\]
*394 cmux\.vbuf\[16\]
*395 cmux\.vbuf\[17\]
*396 cmux\.vbuf\[18\]
*397 cmux\.vbuf\[19\]
*398 cmux\.vbuf\[1\]
*399 cmux\.vbuf\[20\]
*400 cmux\.vbuf\[21\]
*401 cmux\.vbuf\[22\]
*402 cmux\.vbuf\[23\]
*403 cmux\.vbuf\[24\]
*404 cmux\.vbuf\[25\]
*405 cmux\.vbuf\[26\]
*406 cmux\.vbuf\[27\]
*407 cmux\.vbuf\[28\]
*408 cmux\.vbuf\[29\]
*409 cmux\.vbuf\[2\]
*410 cmux\.vbuf\[30\]
*411 cmux\.vbuf\[31\]
*412 cmux\.vbuf\[32\]
*413 cmux\.vbuf\[33\]
*414 cmux\.vbuf\[34\]
*415 cmux\.vbuf\[35\]
*416 cmux\.vbuf\[36\]
*417 cmux\.vbuf\[37\]
*418 cmux\.vbuf\[38\]
*419 cmux\.vbuf\[39\]
*420 cmux\.vbuf\[3\]
*421 cmux\.vbuf\[40\]
*422 cmux\.vbuf\[41\]
*423 cmux\.vbuf\[42\]
*424 cmux\.vbuf\[43\]
*425 cmux\.vbuf\[44\]
*426 cmux\.vbuf\[45\]
*427 cmux\.vbuf\[46\]
*428 cmux\.vbuf\[47\]
*429 cmux\.vbuf\[48\]
*430 cmux\.vbuf\[49\]
*431 cmux\.vbuf\[4\]
*432 cmux\.vbuf\[50\]
*433 cmux\.vbuf\[51\]
*434 cmux\.vbuf\[52\]
*435 cmux\.vbuf\[53\]
*436 cmux\.vbuf\[54\]
*437 cmux\.vbuf\[55\]
*438 cmux\.vbuf\[56\]
*439 cmux\.vbuf\[57\]
*440 cmux\.vbuf\[58\]
*441 cmux\.vbuf\[59\]
*442 cmux\.vbuf\[5\]
*443 cmux\.vbuf\[60\]
*444 cmux\.vbuf\[61\]
*445 cmux\.vbuf\[62\]
*446 cmux\.vbuf\[63\]
*447 cmux\.vbuf\[6\]
*448 cmux\.vbuf\[7\]
*449 cmux\.vbuf\[8\]
*450 cmux\.vbuf\[9\]
*451 col_count\[0\]
*452 col_count\[1\]
*453 col_count\[2\]
*454 col_count\[3\]
*455 col_count\[4\]
*456 dcounter\[0\]
*457 dcounter\[1\]
*458 dcounter\[2\]
*459 dcounter\[3\]
*460 dcounter\[4\]
*461 dcounter\[5\]
*462 dcounter\[6\]
*463 dcounter\[7\]
*464 dcounter\[8\]
*465 dcounter\[9\]
*466 net1
*467 net10
*468 net11
*469 net12
*470 net13
*471 net14
*472 net15
*473 net16
*474 net17
*475 net18
*476 net19
*477 net2
*478 net20
*479 net21
*480 net22
*481 net23
*482 net24
*483 net25
*484 net26
*485 net27
*486 net28
*487 net29
*488 net3
*489 net30
*490 net31
*491 net32
*492 net33
*493 net34
*494 net35
*495 net36
*496 net4
*497 net45
*498 net46
*499 net47
*500 net48
*501 net5
*502 net6
*503 net7
*504 net8
*505 net9
*506 sclk
*507 FILLER_0_0_109
*508 FILLER_0_0_113
*509 FILLER_0_0_125
*510 FILLER_0_0_137
*511 FILLER_0_0_141
*512 FILLER_0_0_15
*513 FILLER_0_0_153
*514 FILLER_0_0_165
*515 FILLER_0_0_169
*516 FILLER_0_0_181
*517 FILLER_0_0_193
*518 FILLER_0_0_197
*519 FILLER_0_0_209
*520 FILLER_0_0_221
*521 FILLER_0_0_225
*522 FILLER_0_0_237
*523 FILLER_0_0_249
*524 FILLER_0_0_253
*525 FILLER_0_0_265
*526 FILLER_0_0_27
*527 FILLER_0_0_277
*528 FILLER_0_0_281
*529 FILLER_0_0_29
*530 FILLER_0_0_293
*531 FILLER_0_0_3
*532 FILLER_0_0_305
*533 FILLER_0_0_309
*534 FILLER_0_0_321
*535 FILLER_0_0_333
*536 FILLER_0_0_337
*537 FILLER_0_0_349
*538 FILLER_0_0_41
*539 FILLER_0_0_53
*540 FILLER_0_0_57
*541 FILLER_0_0_69
*542 FILLER_0_0_81
*543 FILLER_0_0_85
*544 FILLER_0_0_97
*545 FILLER_0_10_109
*546 FILLER_0_10_121
*547 FILLER_0_10_133
*548 FILLER_0_10_139
*549 FILLER_0_10_141
*550 FILLER_0_10_15
*551 FILLER_0_10_153
*552 FILLER_0_10_165
*553 FILLER_0_10_177
*554 FILLER_0_10_189
*555 FILLER_0_10_195
*556 FILLER_0_10_197
*557 FILLER_0_10_209
*558 FILLER_0_10_221
*559 FILLER_0_10_233
*560 FILLER_0_10_245
*561 FILLER_0_10_251
*562 FILLER_0_10_253
*563 FILLER_0_10_265
*564 FILLER_0_10_27
*565 FILLER_0_10_277
*566 FILLER_0_10_289
*567 FILLER_0_10_29
*568 FILLER_0_10_3
*569 FILLER_0_10_301
*570 FILLER_0_10_307
*571 FILLER_0_10_309
*572 FILLER_0_10_321
*573 FILLER_0_10_333
*574 FILLER_0_10_345
*575 FILLER_0_10_41
*576 FILLER_0_10_53
*577 FILLER_0_10_65
*578 FILLER_0_10_77
*579 FILLER_0_10_83
*580 FILLER_0_10_85
*581 FILLER_0_10_97
*582 FILLER_0_11_105
*583 FILLER_0_11_111
*584 FILLER_0_11_113
*585 FILLER_0_11_125
*586 FILLER_0_11_137
*587 FILLER_0_11_149
*588 FILLER_0_11_15
*589 FILLER_0_11_161
*590 FILLER_0_11_167
*591 FILLER_0_11_169
*592 FILLER_0_11_181
*593 FILLER_0_11_193
*594 FILLER_0_11_205
*595 FILLER_0_11_217
*596 FILLER_0_11_223
*597 FILLER_0_11_225
*598 FILLER_0_11_237
*599 FILLER_0_11_249
*600 FILLER_0_11_261
*601 FILLER_0_11_27
*602 FILLER_0_11_273
*603 FILLER_0_11_279
*604 FILLER_0_11_281
*605 FILLER_0_11_293
*606 FILLER_0_11_3
*607 FILLER_0_11_305
*608 FILLER_0_11_317
*609 FILLER_0_11_329
*610 FILLER_0_11_335
*611 FILLER_0_11_337
*612 FILLER_0_11_349
*613 FILLER_0_11_39
*614 FILLER_0_11_51
*615 FILLER_0_11_55
*616 FILLER_0_11_57
*617 FILLER_0_11_69
*618 FILLER_0_11_81
*619 FILLER_0_11_93
*620 FILLER_0_12_109
*621 FILLER_0_12_121
*622 FILLER_0_12_133
*623 FILLER_0_12_139
*624 FILLER_0_12_141
*625 FILLER_0_12_15
*626 FILLER_0_12_153
*627 FILLER_0_12_165
*628 FILLER_0_12_177
*629 FILLER_0_12_189
*630 FILLER_0_12_195
*631 FILLER_0_12_197
*632 FILLER_0_12_209
*633 FILLER_0_12_221
*634 FILLER_0_12_233
*635 FILLER_0_12_245
*636 FILLER_0_12_251
*637 FILLER_0_12_253
*638 FILLER_0_12_265
*639 FILLER_0_12_27
*640 FILLER_0_12_277
*641 FILLER_0_12_289
*642 FILLER_0_12_29
*643 FILLER_0_12_3
*644 FILLER_0_12_301
*645 FILLER_0_12_307
*646 FILLER_0_12_309
*647 FILLER_0_12_321
*648 FILLER_0_12_333
*649 FILLER_0_12_345
*650 FILLER_0_12_41
*651 FILLER_0_12_53
*652 FILLER_0_12_65
*653 FILLER_0_12_77
*654 FILLER_0_12_83
*655 FILLER_0_12_85
*656 FILLER_0_12_97
*657 FILLER_0_13_105
*658 FILLER_0_13_111
*659 FILLER_0_13_113
*660 FILLER_0_13_125
*661 FILLER_0_13_137
*662 FILLER_0_13_149
*663 FILLER_0_13_15
*664 FILLER_0_13_161
*665 FILLER_0_13_167
*666 FILLER_0_13_169
*667 FILLER_0_13_181
*668 FILLER_0_13_193
*669 FILLER_0_13_205
*670 FILLER_0_13_217
*671 FILLER_0_13_223
*672 FILLER_0_13_225
*673 FILLER_0_13_237
*674 FILLER_0_13_249
*675 FILLER_0_13_261
*676 FILLER_0_13_27
*677 FILLER_0_13_273
*678 FILLER_0_13_279
*679 FILLER_0_13_281
*680 FILLER_0_13_293
*681 FILLER_0_13_3
*682 FILLER_0_13_305
*683 FILLER_0_13_317
*684 FILLER_0_13_329
*685 FILLER_0_13_335
*686 FILLER_0_13_337
*687 FILLER_0_13_349
*688 FILLER_0_13_39
*689 FILLER_0_13_51
*690 FILLER_0_13_55
*691 FILLER_0_13_57
*692 FILLER_0_13_69
*693 FILLER_0_13_81
*694 FILLER_0_13_93
*695 FILLER_0_14_109
*696 FILLER_0_14_121
*697 FILLER_0_14_133
*698 FILLER_0_14_139
*699 FILLER_0_14_141
*700 FILLER_0_14_15
*701 FILLER_0_14_153
*702 FILLER_0_14_165
*703 FILLER_0_14_177
*704 FILLER_0_14_189
*705 FILLER_0_14_195
*706 FILLER_0_14_197
*707 FILLER_0_14_209
*708 FILLER_0_14_221
*709 FILLER_0_14_233
*710 FILLER_0_14_245
*711 FILLER_0_14_251
*712 FILLER_0_14_253
*713 FILLER_0_14_265
*714 FILLER_0_14_27
*715 FILLER_0_14_277
*716 FILLER_0_14_289
*717 FILLER_0_14_29
*718 FILLER_0_14_3
*719 FILLER_0_14_301
*720 FILLER_0_14_307
*721 FILLER_0_14_309
*722 FILLER_0_14_321
*723 FILLER_0_14_333
*724 FILLER_0_14_345
*725 FILLER_0_14_41
*726 FILLER_0_14_53
*727 FILLER_0_14_65
*728 FILLER_0_14_77
*729 FILLER_0_14_83
*730 FILLER_0_14_85
*731 FILLER_0_14_97
*732 FILLER_0_15_102
*733 FILLER_0_15_110
*734 FILLER_0_15_113
*735 FILLER_0_15_125
*736 FILLER_0_15_137
*737 FILLER_0_15_149
*738 FILLER_0_15_15
*739 FILLER_0_15_161
*740 FILLER_0_15_167
*741 FILLER_0_15_169
*742 FILLER_0_15_181
*743 FILLER_0_15_193
*744 FILLER_0_15_205
*745 FILLER_0_15_217
*746 FILLER_0_15_223
*747 FILLER_0_15_225
*748 FILLER_0_15_237
*749 FILLER_0_15_249
*750 FILLER_0_15_261
*751 FILLER_0_15_27
*752 FILLER_0_15_273
*753 FILLER_0_15_279
*754 FILLER_0_15_281
*755 FILLER_0_15_293
*756 FILLER_0_15_3
*757 FILLER_0_15_305
*758 FILLER_0_15_317
*759 FILLER_0_15_329
*760 FILLER_0_15_335
*761 FILLER_0_15_337
*762 FILLER_0_15_349
*763 FILLER_0_15_39
*764 FILLER_0_15_51
*765 FILLER_0_15_55
*766 FILLER_0_15_57
*767 FILLER_0_15_69
*768 FILLER_0_15_81
*769 FILLER_0_15_93
*770 FILLER_0_16_113
*771 FILLER_0_16_125
*772 FILLER_0_16_136
*773 FILLER_0_16_141
*774 FILLER_0_16_145
*775 FILLER_0_16_15
*776 FILLER_0_16_151
*777 FILLER_0_16_163
*778 FILLER_0_16_175
*779 FILLER_0_16_187
*780 FILLER_0_16_195
*781 FILLER_0_16_197
*782 FILLER_0_16_209
*783 FILLER_0_16_221
*784 FILLER_0_16_233
*785 FILLER_0_16_245
*786 FILLER_0_16_251
*787 FILLER_0_16_253
*788 FILLER_0_16_265
*789 FILLER_0_16_27
*790 FILLER_0_16_277
*791 FILLER_0_16_289
*792 FILLER_0_16_29
*793 FILLER_0_16_3
*794 FILLER_0_16_301
*795 FILLER_0_16_307
*796 FILLER_0_16_309
*797 FILLER_0_16_321
*798 FILLER_0_16_333
*799 FILLER_0_16_345
*800 FILLER_0_16_41
*801 FILLER_0_16_53
*802 FILLER_0_16_65
*803 FILLER_0_16_77
*804 FILLER_0_16_83
*805 FILLER_0_16_85
*806 FILLER_0_16_91
*807 FILLER_0_17_106
*808 FILLER_0_17_113
*809 FILLER_0_17_15
*810 FILLER_0_17_169
*811 FILLER_0_17_177
*812 FILLER_0_17_194
*813 FILLER_0_17_199
*814 FILLER_0_17_211
*815 FILLER_0_17_219
*816 FILLER_0_17_223
*817 FILLER_0_17_225
*818 FILLER_0_17_237
*819 FILLER_0_17_249
*820 FILLER_0_17_261
*821 FILLER_0_17_27
*822 FILLER_0_17_273
*823 FILLER_0_17_279
*824 FILLER_0_17_281
*825 FILLER_0_17_293
*826 FILLER_0_17_3
*827 FILLER_0_17_305
*828 FILLER_0_17_317
*829 FILLER_0_17_329
*830 FILLER_0_17_335
*831 FILLER_0_17_337
*832 FILLER_0_17_349
*833 FILLER_0_17_39
*834 FILLER_0_17_51
*835 FILLER_0_17_55
*836 FILLER_0_17_57
*837 FILLER_0_17_69
*838 FILLER_0_17_73
*839 FILLER_0_18_115
*840 FILLER_0_18_137
*841 FILLER_0_18_141
*842 FILLER_0_18_15
*843 FILLER_0_18_152
*844 FILLER_0_18_187
*845 FILLER_0_18_197
*846 FILLER_0_18_214
*847 FILLER_0_18_239
*848 FILLER_0_18_243
*849 FILLER_0_18_247
*850 FILLER_0_18_251
*851 FILLER_0_18_253
*852 FILLER_0_18_259
*853 FILLER_0_18_27
*854 FILLER_0_18_276
*855 FILLER_0_18_288
*856 FILLER_0_18_29
*857 FILLER_0_18_3
*858 FILLER_0_18_300
*859 FILLER_0_18_309
*860 FILLER_0_18_321
*861 FILLER_0_18_333
*862 FILLER_0_18_345
*863 FILLER_0_18_41
*864 FILLER_0_18_53
*865 FILLER_0_18_65
*866 FILLER_0_18_77
*867 FILLER_0_18_83
*868 FILLER_0_18_85
*869 FILLER_0_18_97
*870 FILLER_0_19_108
*871 FILLER_0_19_113
*872 FILLER_0_19_125
*873 FILLER_0_19_15
*874 FILLER_0_19_160
*875 FILLER_0_19_166
*876 FILLER_0_19_169
*877 FILLER_0_19_183
*878 FILLER_0_19_191
*879 FILLER_0_19_208
*880 FILLER_0_19_220
*881 FILLER_0_19_241
*882 FILLER_0_19_249
*883 FILLER_0_19_27
*884 FILLER_0_19_276
*885 FILLER_0_19_281
*886 FILLER_0_19_287
*887 FILLER_0_19_296
*888 FILLER_0_19_3
*889 FILLER_0_19_308
*890 FILLER_0_19_320
*891 FILLER_0_19_332
*892 FILLER_0_19_337
*893 FILLER_0_19_349
*894 FILLER_0_19_39
*895 FILLER_0_19_51
*896 FILLER_0_19_55
*897 FILLER_0_19_57
*898 FILLER_0_19_69
*899 FILLER_0_19_77
*900 FILLER_0_19_96
*901 FILLER_0_1_105
*902 FILLER_0_1_111
*903 FILLER_0_1_113
*904 FILLER_0_1_125
*905 FILLER_0_1_137
*906 FILLER_0_1_149
*907 FILLER_0_1_15
*908 FILLER_0_1_161
*909 FILLER_0_1_167
*910 FILLER_0_1_169
*911 FILLER_0_1_181
*912 FILLER_0_1_193
*913 FILLER_0_1_205
*914 FILLER_0_1_217
*915 FILLER_0_1_223
*916 FILLER_0_1_225
*917 FILLER_0_1_237
*918 FILLER_0_1_249
*919 FILLER_0_1_261
*920 FILLER_0_1_27
*921 FILLER_0_1_273
*922 FILLER_0_1_279
*923 FILLER_0_1_281
*924 FILLER_0_1_293
*925 FILLER_0_1_3
*926 FILLER_0_1_305
*927 FILLER_0_1_317
*928 FILLER_0_1_329
*929 FILLER_0_1_335
*930 FILLER_0_1_337
*931 FILLER_0_1_349
*932 FILLER_0_1_39
*933 FILLER_0_1_51
*934 FILLER_0_1_55
*935 FILLER_0_1_57
*936 FILLER_0_1_69
*937 FILLER_0_1_81
*938 FILLER_0_1_93
*939 FILLER_0_20_105
*940 FILLER_0_20_117
*941 FILLER_0_20_129
*942 FILLER_0_20_137
*943 FILLER_0_20_141
*944 FILLER_0_20_15
*945 FILLER_0_20_153
*946 FILLER_0_20_172
*947 FILLER_0_20_184
*948 FILLER_0_20_192
*949 FILLER_0_20_197
*950 FILLER_0_20_205
*951 FILLER_0_20_212
*952 FILLER_0_20_220
*953 FILLER_0_20_224
*954 FILLER_0_20_242
*955 FILLER_0_20_250
*956 FILLER_0_20_253
*957 FILLER_0_20_27
*958 FILLER_0_20_29
*959 FILLER_0_20_291
*960 FILLER_0_20_3
*961 FILLER_0_20_330
*962 FILLER_0_20_342
*963 FILLER_0_20_350
*964 FILLER_0_20_41
*965 FILLER_0_20_53
*966 FILLER_0_20_65
*967 FILLER_0_20_77
*968 FILLER_0_20_83
*969 FILLER_0_20_85
*970 FILLER_0_21_113
*971 FILLER_0_21_119
*972 FILLER_0_21_123
*973 FILLER_0_21_147
*974 FILLER_0_21_15
*975 FILLER_0_21_159
*976 FILLER_0_21_167
*977 FILLER_0_21_172
*978 FILLER_0_21_178
*979 FILLER_0_21_195
*980 FILLER_0_21_206
*981 FILLER_0_21_225
*982 FILLER_0_21_243
*983 FILLER_0_21_255
*984 FILLER_0_21_27
*985 FILLER_0_21_275
*986 FILLER_0_21_279
*987 FILLER_0_21_281
*988 FILLER_0_21_285
*989 FILLER_0_21_3
*990 FILLER_0_21_305
*991 FILLER_0_21_313
*992 FILLER_0_21_333
*993 FILLER_0_21_337
*994 FILLER_0_21_349
*995 FILLER_0_21_39
*996 FILLER_0_21_51
*997 FILLER_0_21_55
*998 FILLER_0_21_57
*999 FILLER_0_21_63
*1000 FILLER_0_21_71
*1001 FILLER_0_21_90
*1002 FILLER_0_22_132
*1003 FILLER_0_22_15
*1004 FILLER_0_22_157
*1005 FILLER_0_22_165
*1006 FILLER_0_22_169
*1007 FILLER_0_22_191
*1008 FILLER_0_22_195
*1009 FILLER_0_22_213
*1010 FILLER_0_22_217
*1011 FILLER_0_22_223
*1012 FILLER_0_22_231
*1013 FILLER_0_22_239
*1014 FILLER_0_22_243
*1015 FILLER_0_22_251
*1016 FILLER_0_22_253
*1017 FILLER_0_22_261
*1018 FILLER_0_22_27
*1019 FILLER_0_22_276
*1020 FILLER_0_22_282
*1021 FILLER_0_22_29
*1022 FILLER_0_22_299
*1023 FILLER_0_22_3
*1024 FILLER_0_22_307
*1025 FILLER_0_22_316
*1026 FILLER_0_22_344
*1027 FILLER_0_22_350
*1028 FILLER_0_22_41
*1029 FILLER_0_22_60
*1030 FILLER_0_22_78
*1031 FILLER_0_23_107
*1032 FILLER_0_23_111
*1033 FILLER_0_23_113
*1034 FILLER_0_23_125
*1035 FILLER_0_23_15
*1036 FILLER_0_23_157
*1037 FILLER_0_23_165
*1038 FILLER_0_23_169
*1039 FILLER_0_23_177
*1040 FILLER_0_23_203
*1041 FILLER_0_23_209
*1042 FILLER_0_23_215
*1043 FILLER_0_23_220
*1044 FILLER_0_23_241
*1045 FILLER_0_23_253
*1046 FILLER_0_23_257
*1047 FILLER_0_23_274
*1048 FILLER_0_23_281
*1049 FILLER_0_23_287
*1050 FILLER_0_23_293
*1051 FILLER_0_23_3
*1052 FILLER_0_23_305
*1053 FILLER_0_23_31
*1054 FILLER_0_23_342
*1055 FILLER_0_23_350
*1056 FILLER_0_23_43
*1057 FILLER_0_23_55
*1058 FILLER_0_23_78
*1059 FILLER_0_23_86
*1060 FILLER_0_24_11
*1061 FILLER_0_24_111
*1062 FILLER_0_24_115
*1063 FILLER_0_24_122
*1064 FILLER_0_24_134
*1065 FILLER_0_24_148
*1066 FILLER_0_24_160
*1067 FILLER_0_24_172
*1068 FILLER_0_24_195
*1069 FILLER_0_24_197
*1070 FILLER_0_24_209
*1071 FILLER_0_24_217
*1072 FILLER_0_24_225
*1073 FILLER_0_24_237
*1074 FILLER_0_24_249
*1075 FILLER_0_24_253
*1076 FILLER_0_24_282
*1077 FILLER_0_24_286
*1078 FILLER_0_24_298
*1079 FILLER_0_24_3
*1080 FILLER_0_24_306
*1081 FILLER_0_24_309
*1082 FILLER_0_24_350
*1083 FILLER_0_24_45
*1084 FILLER_0_24_66
*1085 FILLER_0_24_78
*1086 FILLER_0_24_85
*1087 FILLER_0_24_91
*1088 FILLER_0_24_99
*1089 FILLER_0_25_111
*1090 FILLER_0_25_113
*1091 FILLER_0_25_128
*1092 FILLER_0_25_133
*1093 FILLER_0_25_141
*1094 FILLER_0_25_162
*1095 FILLER_0_25_169
*1096 FILLER_0_25_177
*1097 FILLER_0_25_189
*1098 FILLER_0_25_202
*1099 FILLER_0_25_225
*1100 FILLER_0_25_244
*1101 FILLER_0_25_271
*1102 FILLER_0_25_279
*1103 FILLER_0_25_297
*1104 FILLER_0_25_3
*1105 FILLER_0_25_321
*1106 FILLER_0_25_327
*1107 FILLER_0_25_334
*1108 FILLER_0_25_340
*1109 FILLER_0_25_348
*1110 FILLER_0_25_43
*1111 FILLER_0_25_55
*1112 FILLER_0_25_62
*1113 FILLER_0_25_66
*1114 FILLER_0_25_99
*1115 FILLER_0_26_132
*1116 FILLER_0_26_141
*1117 FILLER_0_26_145
*1118 FILLER_0_26_162
*1119 FILLER_0_26_173
*1120 FILLER_0_26_192
*1121 FILLER_0_26_197
*1122 FILLER_0_26_209
*1123 FILLER_0_26_236
*1124 FILLER_0_26_248
*1125 FILLER_0_26_253
*1126 FILLER_0_26_27
*1127 FILLER_0_26_3
*1128 FILLER_0_26_309
*1129 FILLER_0_26_34
*1130 FILLER_0_26_344
*1131 FILLER_0_26_350
*1132 FILLER_0_26_42
*1133 FILLER_0_26_60
*1134 FILLER_0_26_7
*1135 FILLER_0_26_82
*1136 FILLER_0_26_88
*1137 FILLER_0_26_92
*1138 FILLER_0_26_96
*1139 FILLER_0_27_102
*1140 FILLER_0_27_110
*1141 FILLER_0_27_113
*1142 FILLER_0_27_119
*1143 FILLER_0_27_136
*1144 FILLER_0_27_148
*1145 FILLER_0_27_15
*1146 FILLER_0_27_158
*1147 FILLER_0_27_166
*1148 FILLER_0_27_177
*1149 FILLER_0_27_189
*1150 FILLER_0_27_201
*1151 FILLER_0_27_221
*1152 FILLER_0_27_230
*1153 FILLER_0_27_242
*1154 FILLER_0_27_253
*1155 FILLER_0_27_265
*1156 FILLER_0_27_277
*1157 FILLER_0_27_284
*1158 FILLER_0_27_296
*1159 FILLER_0_27_3
*1160 FILLER_0_27_302
*1161 FILLER_0_27_327
*1162 FILLER_0_27_335
*1163 FILLER_0_27_337
*1164 FILLER_0_27_349
*1165 FILLER_0_27_40
*1166 FILLER_0_27_52
*1167 FILLER_0_27_73
*1168 FILLER_0_27_80
*1169 FILLER_0_27_97
*1170 FILLER_0_28_101
*1171 FILLER_0_28_113
*1172 FILLER_0_28_117
*1173 FILLER_0_28_136
*1174 FILLER_0_28_183
*1175 FILLER_0_28_195
*1176 FILLER_0_28_197
*1177 FILLER_0_28_225
*1178 FILLER_0_28_233
*1179 FILLER_0_28_259
*1180 FILLER_0_28_26
*1181 FILLER_0_28_271
*1182 FILLER_0_28_283
*1183 FILLER_0_28_295
*1184 FILLER_0_28_3
*1185 FILLER_0_28_303
*1186 FILLER_0_28_329
*1187 FILLER_0_28_341
*1188 FILLER_0_28_349
*1189 FILLER_0_28_45
*1190 FILLER_0_28_50
*1191 FILLER_0_28_62
*1192 FILLER_0_28_9
*1193 FILLER_0_29_101
*1194 FILLER_0_29_109
*1195 FILLER_0_29_113
*1196 FILLER_0_29_125
*1197 FILLER_0_29_129
*1198 FILLER_0_29_136
*1199 FILLER_0_29_158
*1200 FILLER_0_29_183
*1201 FILLER_0_29_191
*1202 FILLER_0_29_208
*1203 FILLER_0_29_220
*1204 FILLER_0_29_241
*1205 FILLER_0_29_274
*1206 FILLER_0_29_281
*1207 FILLER_0_29_3
*1208 FILLER_0_29_30
*1209 FILLER_0_29_310
*1210 FILLER_0_29_316
*1211 FILLER_0_29_328
*1212 FILLER_0_29_337
*1213 FILLER_0_29_349
*1214 FILLER_0_29_42
*1215 FILLER_0_29_54
*1216 FILLER_0_29_57
*1217 FILLER_0_29_69
*1218 FILLER_0_29_85
*1219 FILLER_0_2_109
*1220 FILLER_0_2_121
*1221 FILLER_0_2_133
*1222 FILLER_0_2_139
*1223 FILLER_0_2_141
*1224 FILLER_0_2_15
*1225 FILLER_0_2_153
*1226 FILLER_0_2_165
*1227 FILLER_0_2_177
*1228 FILLER_0_2_189
*1229 FILLER_0_2_195
*1230 FILLER_0_2_197
*1231 FILLER_0_2_209
*1232 FILLER_0_2_221
*1233 FILLER_0_2_233
*1234 FILLER_0_2_245
*1235 FILLER_0_2_251
*1236 FILLER_0_2_253
*1237 FILLER_0_2_265
*1238 FILLER_0_2_27
*1239 FILLER_0_2_277
*1240 FILLER_0_2_289
*1241 FILLER_0_2_29
*1242 FILLER_0_2_3
*1243 FILLER_0_2_301
*1244 FILLER_0_2_307
*1245 FILLER_0_2_309
*1246 FILLER_0_2_321
*1247 FILLER_0_2_333
*1248 FILLER_0_2_345
*1249 FILLER_0_2_41
*1250 FILLER_0_2_53
*1251 FILLER_0_2_65
*1252 FILLER_0_2_77
*1253 FILLER_0_2_83
*1254 FILLER_0_2_85
*1255 FILLER_0_2_97
*1256 FILLER_0_30_107
*1257 FILLER_0_30_113
*1258 FILLER_0_30_121
*1259 FILLER_0_30_141
*1260 FILLER_0_30_15
*1261 FILLER_0_30_158
*1262 FILLER_0_30_177
*1263 FILLER_0_30_192
*1264 FILLER_0_30_215
*1265 FILLER_0_30_237
*1266 FILLER_0_30_246
*1267 FILLER_0_30_253
*1268 FILLER_0_30_27
*1269 FILLER_0_30_276
*1270 FILLER_0_30_285
*1271 FILLER_0_30_29
*1272 FILLER_0_30_3
*1273 FILLER_0_30_306
*1274 FILLER_0_30_309
*1275 FILLER_0_30_316
*1276 FILLER_0_30_320
*1277 FILLER_0_30_337
*1278 FILLER_0_30_349
*1279 FILLER_0_30_52
*1280 FILLER_0_30_64
*1281 FILLER_0_30_90
*1282 FILLER_0_31_11
*1283 FILLER_0_31_129
*1284 FILLER_0_31_133
*1285 FILLER_0_31_166
*1286 FILLER_0_31_173
*1287 FILLER_0_31_185
*1288 FILLER_0_31_216
*1289 FILLER_0_31_225
*1290 FILLER_0_31_250
*1291 FILLER_0_31_262
*1292 FILLER_0_31_279
*1293 FILLER_0_31_3
*1294 FILLER_0_31_300
*1295 FILLER_0_31_337
*1296 FILLER_0_31_346
*1297 FILLER_0_31_350
*1298 FILLER_0_31_53
*1299 FILLER_0_31_57
*1300 FILLER_0_31_95
*1301 FILLER_0_32_102
*1302 FILLER_0_32_111
*1303 FILLER_0_32_123
*1304 FILLER_0_32_135
*1305 FILLER_0_32_139
*1306 FILLER_0_32_141
*1307 FILLER_0_32_177
*1308 FILLER_0_32_192
*1309 FILLER_0_32_213
*1310 FILLER_0_32_237
*1311 FILLER_0_32_249
*1312 FILLER_0_32_253
*1313 FILLER_0_32_26
*1314 FILLER_0_32_261
*1315 FILLER_0_32_269
*1316 FILLER_0_32_275
*1317 FILLER_0_32_297
*1318 FILLER_0_32_3
*1319 FILLER_0_32_305
*1320 FILLER_0_32_309
*1321 FILLER_0_32_45
*1322 FILLER_0_32_57
*1323 FILLER_0_32_83
*1324 FILLER_0_32_9
*1325 FILLER_0_32_90
*1326 FILLER_0_33_110
*1327 FILLER_0_33_113
*1328 FILLER_0_33_121
*1329 FILLER_0_33_135
*1330 FILLER_0_33_167
*1331 FILLER_0_33_169
*1332 FILLER_0_33_181
*1333 FILLER_0_33_189
*1334 FILLER_0_33_209
*1335 FILLER_0_33_221
*1336 FILLER_0_33_225
*1337 FILLER_0_33_237
*1338 FILLER_0_33_249
*1339 FILLER_0_33_261
*1340 FILLER_0_33_273
*1341 FILLER_0_33_279
*1342 FILLER_0_33_281
*1343 FILLER_0_33_293
*1344 FILLER_0_33_3
*1345 FILLER_0_33_305
*1346 FILLER_0_33_345
*1347 FILLER_0_33_39
*1348 FILLER_0_33_51
*1349 FILLER_0_33_55
*1350 FILLER_0_33_57
*1351 FILLER_0_33_69
*1352 FILLER_0_33_75
*1353 FILLER_0_33_83
*1354 FILLER_0_33_91
*1355 FILLER_0_34_126
*1356 FILLER_0_34_139
*1357 FILLER_0_34_141
*1358 FILLER_0_34_15
*1359 FILLER_0_34_158
*1360 FILLER_0_34_163
*1361 FILLER_0_34_175
*1362 FILLER_0_34_187
*1363 FILLER_0_34_21
*1364 FILLER_0_34_218
*1365 FILLER_0_34_230
*1366 FILLER_0_34_238
*1367 FILLER_0_34_248
*1368 FILLER_0_34_25
*1369 FILLER_0_34_258
*1370 FILLER_0_34_277
*1371 FILLER_0_34_289
*1372 FILLER_0_34_29
*1373 FILLER_0_34_3
*1374 FILLER_0_34_301
*1375 FILLER_0_34_307
*1376 FILLER_0_34_309
*1377 FILLER_0_34_346
*1378 FILLER_0_34_350
*1379 FILLER_0_34_41
*1380 FILLER_0_34_53
*1381 FILLER_0_34_65
*1382 FILLER_0_34_75
*1383 FILLER_0_34_83
*1384 FILLER_0_34_85
*1385 FILLER_0_34_97
*1386 FILLER_0_35_102
*1387 FILLER_0_35_108
*1388 FILLER_0_35_113
*1389 FILLER_0_35_135
*1390 FILLER_0_35_143
*1391 FILLER_0_35_149
*1392 FILLER_0_35_15
*1393 FILLER_0_35_172
*1394 FILLER_0_35_184
*1395 FILLER_0_35_217
*1396 FILLER_0_35_223
*1397 FILLER_0_35_225
*1398 FILLER_0_35_27
*1399 FILLER_0_35_279
*1400 FILLER_0_35_287
*1401 FILLER_0_35_299
*1402 FILLER_0_35_3
*1403 FILLER_0_35_311
*1404 FILLER_0_35_333
*1405 FILLER_0_35_337
*1406 FILLER_0_35_348
*1407 FILLER_0_35_39
*1408 FILLER_0_35_47
*1409 FILLER_0_35_73
*1410 FILLER_0_35_90
*1411 FILLER_0_36_141
*1412 FILLER_0_36_15
*1413 FILLER_0_36_182
*1414 FILLER_0_36_218
*1415 FILLER_0_36_269
*1416 FILLER_0_36_27
*1417 FILLER_0_36_29
*1418 FILLER_0_36_3
*1419 FILLER_0_36_300
*1420 FILLER_0_36_304
*1421 FILLER_0_36_342
*1422 FILLER_0_36_350
*1423 FILLER_0_36_41
*1424 FILLER_0_36_90
*1425 FILLER_0_37_109
*1426 FILLER_0_37_122
*1427 FILLER_0_37_128
*1428 FILLER_0_37_15
*1429 FILLER_0_37_160
*1430 FILLER_0_37_166
*1431 FILLER_0_37_169
*1432 FILLER_0_37_181
*1433 FILLER_0_37_220
*1434 FILLER_0_37_225
*1435 FILLER_0_37_264
*1436 FILLER_0_37_27
*1437 FILLER_0_37_3
*1438 FILLER_0_37_346
*1439 FILLER_0_37_350
*1440 FILLER_0_37_39
*1441 FILLER_0_37_47
*1442 FILLER_0_37_73
*1443 FILLER_0_37_83
*1444 FILLER_0_38_113
*1445 FILLER_0_38_125
*1446 FILLER_0_38_137
*1447 FILLER_0_38_14
*1448 FILLER_0_38_141
*1449 FILLER_0_38_150
*1450 FILLER_0_38_157
*1451 FILLER_0_38_165
*1452 FILLER_0_38_169
*1453 FILLER_0_38_18
*1454 FILLER_0_38_181
*1455 FILLER_0_38_193
*1456 FILLER_0_38_197
*1457 FILLER_0_38_205
*1458 FILLER_0_38_212
*1459 FILLER_0_38_218
*1460 FILLER_0_38_22
*1461 FILLER_0_38_225
*1462 FILLER_0_38_237
*1463 FILLER_0_38_242
*1464 FILLER_0_38_250
*1465 FILLER_0_38_253
*1466 FILLER_0_38_265
*1467 FILLER_0_38_270
*1468 FILLER_0_38_291
*1469 FILLER_0_38_3
*1470 FILLER_0_38_32
*1471 FILLER_0_38_334
*1472 FILLER_0_38_346
*1473 FILLER_0_38_350
*1474 FILLER_0_38_38
*1475 FILLER_0_38_42
*1476 FILLER_0_38_46
*1477 FILLER_0_38_50
*1478 FILLER_0_38_54
*1479 FILLER_0_38_57
*1480 FILLER_0_38_65
*1481 FILLER_0_38_70
*1482 FILLER_0_38_75
*1483 FILLER_0_38_83
*1484 FILLER_0_38_85
*1485 FILLER_0_38_98
*1486 FILLER_0_3_105
*1487 FILLER_0_3_111
*1488 FILLER_0_3_113
*1489 FILLER_0_3_125
*1490 FILLER_0_3_137
*1491 FILLER_0_3_149
*1492 FILLER_0_3_15
*1493 FILLER_0_3_161
*1494 FILLER_0_3_167
*1495 FILLER_0_3_169
*1496 FILLER_0_3_181
*1497 FILLER_0_3_193
*1498 FILLER_0_3_205
*1499 FILLER_0_3_217
*1500 FILLER_0_3_223
*1501 FILLER_0_3_225
*1502 FILLER_0_3_237
*1503 FILLER_0_3_249
*1504 FILLER_0_3_261
*1505 FILLER_0_3_27
*1506 FILLER_0_3_273
*1507 FILLER_0_3_279
*1508 FILLER_0_3_281
*1509 FILLER_0_3_293
*1510 FILLER_0_3_3
*1511 FILLER_0_3_305
*1512 FILLER_0_3_317
*1513 FILLER_0_3_329
*1514 FILLER_0_3_335
*1515 FILLER_0_3_337
*1516 FILLER_0_3_349
*1517 FILLER_0_3_39
*1518 FILLER_0_3_51
*1519 FILLER_0_3_55
*1520 FILLER_0_3_57
*1521 FILLER_0_3_69
*1522 FILLER_0_3_81
*1523 FILLER_0_3_93
*1524 FILLER_0_4_109
*1525 FILLER_0_4_121
*1526 FILLER_0_4_133
*1527 FILLER_0_4_139
*1528 FILLER_0_4_141
*1529 FILLER_0_4_15
*1530 FILLER_0_4_153
*1531 FILLER_0_4_165
*1532 FILLER_0_4_177
*1533 FILLER_0_4_189
*1534 FILLER_0_4_195
*1535 FILLER_0_4_197
*1536 FILLER_0_4_209
*1537 FILLER_0_4_221
*1538 FILLER_0_4_233
*1539 FILLER_0_4_245
*1540 FILLER_0_4_251
*1541 FILLER_0_4_253
*1542 FILLER_0_4_265
*1543 FILLER_0_4_27
*1544 FILLER_0_4_277
*1545 FILLER_0_4_289
*1546 FILLER_0_4_29
*1547 FILLER_0_4_3
*1548 FILLER_0_4_301
*1549 FILLER_0_4_307
*1550 FILLER_0_4_309
*1551 FILLER_0_4_321
*1552 FILLER_0_4_333
*1553 FILLER_0_4_345
*1554 FILLER_0_4_41
*1555 FILLER_0_4_53
*1556 FILLER_0_4_65
*1557 FILLER_0_4_77
*1558 FILLER_0_4_83
*1559 FILLER_0_4_85
*1560 FILLER_0_4_97
*1561 FILLER_0_5_105
*1562 FILLER_0_5_111
*1563 FILLER_0_5_113
*1564 FILLER_0_5_125
*1565 FILLER_0_5_137
*1566 FILLER_0_5_149
*1567 FILLER_0_5_15
*1568 FILLER_0_5_161
*1569 FILLER_0_5_167
*1570 FILLER_0_5_169
*1571 FILLER_0_5_181
*1572 FILLER_0_5_193
*1573 FILLER_0_5_205
*1574 FILLER_0_5_217
*1575 FILLER_0_5_223
*1576 FILLER_0_5_225
*1577 FILLER_0_5_237
*1578 FILLER_0_5_249
*1579 FILLER_0_5_261
*1580 FILLER_0_5_27
*1581 FILLER_0_5_273
*1582 FILLER_0_5_279
*1583 FILLER_0_5_281
*1584 FILLER_0_5_293
*1585 FILLER_0_5_3
*1586 FILLER_0_5_305