*SPEF "ieee 1481-1999"
*DESIGN "tt_um_mjbella_led_matrix_driver"
*DATE "11:11:11 Fri 11 11, 1111"
*VENDOR "OpenRCX"
*PROGRAM "Parallel Extraction"
*VERSION "1.0"
*DESIGN_FLOW "NAME_SCOPE LOCAL" "PIN_CAP NONE"
*DIVIDER /
*DELIMITER :
*BUS_DELIMITER []
*T_UNIT 1 NS
*C_UNIT 1 PF
*R_UNIT 1 OHM
*L_UNIT 1 HENRY

*NAME_MAP
*3 clk
*4 ena
*5 rst_n
*6 ui_in[0]
*7 ui_in[1]
*8 ui_in[2]
*9 ui_in[3]
*10 ui_in[4]
*11 ui_in[5]
*12 ui_in[6]
*13 ui_in[7]
*14 uio_in[0]
*15 uio_in[1]
*16 uio_in[2]
*17 uio_in[3]
*18 uio_in[4]
*19 uio_in[5]
*20 uio_in[6]
*21 uio_in[7]
*22 net29
*23 net30
*24 net31
*25 net32
*26 net33
*27 net34
*28 net35
*29 net36
*30 uio_out[0]
*31 uio_out[1]
*32 uio_out[2]
*33 uio_out[3]
*34 uio_out[4]
*35 uio_out[5]
*36 uio_out[6]
*37 uio_out[7]
*38 uo_out[0]
*39 uo_out[1]
*40 uo_out[2]
*41 uo_out[3]
*42 uo_out[4]
*43 uo_out[5]
*44 uo_out[6]
*45 uo_out[7]
*46 _000_
*47 _001_
*48 _002_
*49 _003_
*50 _004_
*51 _005_
*52 _006_
*53 _007_
*54 _008_
*55 _009_
*56 _010_
*57 _011_
*58 _012_
*59 _013_
*60 _014_
*61 _015_
*62 _016_
*63 _017_
*64 _018_
*65 _019_
*66 _020_
*67 _021_
*68 _022_
*69 _023_
*70 _024_
*71 _025_
*72 _026_
*73 _027_
*74 _028_
*75 _029_
*76 _030_
*77 _031_
*78 _032_
*79 _033_
*80 _034_
*81 _035_
*82 _036_
*83 _037_
*84 _038_
*85 _039_
*86 _040_
*87 _041_
*88 _042_
*89 _043_
*90 _044_
*91 _045_
*92 _046_
*93 _047_
*94 _048_
*95 _049_
*96 _050_
*97 _051_
*98 _052_
*99 _053_
*100 _054_
*101 _055_
*102 _056_
*103 _057_
*104 _058_
*105 _059_
*106 _060_
*107 _061_
*108 _062_
*109 _063_
*110 _064_
*111 _065_
*112 _066_
*113 _067_
*114 _068_
*115 _069_
*116 _070_
*117 _071_
*118 _072_
*119 _073_
*120 _074_
*121 _075_
*122 _076_
*123 _077_
*124 _078_
*125 _079_
*126 _080_
*127 _081_
*128 _082_
*129 _083_
*130 _084_
*131 _085_
*132 _086_
*133 _087_
*134 _088_
*135 _089_
*136 _090_
*137 _092_
*138 _093_
*139 _094_
*140 _095_
*141 _096_
*142 _097_
*143 _098_
*144 _099_
*145 _100_
*146 _101_
*147 _102_
*148 _103_
*149 _104_
*150 _105_
*151 _106_
*152 _107_
*153 _108_
*154 _109_
*155 _110_
*156 _111_
*157 _112_
*158 _113_
*159 _114_
*160 _115_
*161 _116_
*162 _117_
*163 _118_
*164 _119_
*165 _120_
*166 _121_
*167 _122_
*168 _123_
*169 _124_
*170 _125_
*171 _126_
*172 _127_
*173 _128_
*174 _129_
*175 _130_
*176 _131_
*177 _132_
*178 _133_
*179 _134_
*180 _135_
*181 _136_
*182 _137_
*183 _138_
*184 _139_
*185 _140_
*186 _141_
*187 _142_
*188 _143_
*189 _144_
*190 _145_
*191 _146_
*192 _147_
*193 _148_
*194 _149_
*195 _150_
*196 _151_
*197 _152_
*198 _153_
*199 _154_
*200 _155_
*201 _156_
*202 _157_
*203 _158_
*204 _159_
*205 _160_
*206 _161_
*207 _162_
*208 _163_
*209 _164_
*210 _165_
*211 _166_
*212 _167_
*213 _168_
*214 _169_
*215 _170_
*216 _171_
*217 _172_
*218 _173_
*219 _174_
*220 _175_
*221 _176_
*222 _177_
*223 _178_
*224 _179_
*225 _180_
*226 _181_
*227 _182_
*228 _183_
*229 _184_
*230 _185_
*231 _186_
*232 _187_
*233 _188_
*234 _189_
*235 _190_
*236 _191_
*237 _192_
*238 _193_
*239 _194_
*240 _195_
*241 _196_
*242 _197_
*243 _198_
*244 _199_
*245 _200_
*246 _201_
*247 _202_
*248 _203_
*249 _204_
*250 _205_
*251 _206_
*252 _207_
*253 _208_
*254 _209_
*255 _210_
*256 _211_
*257 _212_
*258 _213_
*259 _214_
*260 _215_
*261 _216_
*262 _217_
*263 _218_
*264 _219_
*265 _220_
*266 _221_
*267 _222_
*268 _223_
*269 _224_
*270 _225_
*271 _226_
*272 _227_
*273 _228_
*274 _229_
*275 _230_
*276 _231_
*277 _232_
*278 _233_
*279 _234_
*280 _235_
*281 _236_
*282 _237_
*283 _238_
*284 _239_
*285 _240_
*286 _241_
*287 _242_
*288 _243_
*289 _244_
*290 _245_
*291 _246_
*292 _247_
*293 _248_
*294 _249_
*295 _250_
*296 _251_
*297 _252_
*298 _253_
*299 _254_
*300 _255_
*301 _256_
*302 _257_
*303 _258_
*304 _259_
*305 _260_
*306 _261_
*307 _262_
*308 _263_
*309 _264_
*310 _265_
*311 _266_
*312 _267_
*313 _268_
*314 _269_
*315 _270_
*316 _271_
*317 _272_
*318 _273_
*319 _274_
*320 _275_
*321 _276_
*322 _277_
*323 blank
*324 cdec\.col_counter\[0\]
*325 cdec\.col_counter\[1\]
*326 cdec\.col_counter\[2\]
*327 cdec\.decode_out\[0\]
*328 cdec\.decode_out\[1\]
*329 cdec\.decode_out\[2\]
*330 cdec\.decode_out\[3\]
*331 cdec\.decode_out\[4\]
*332 cdec\.decode_out\[5\]
*333 cdec\.decode_out\[6\]
*334 cdec\.decode_out\[7\]
*335 chain\[0\]
*336 chain\[10\]
*337 chain\[11\]
*338 chain\[12\]
*339 chain\[13\]
*340 chain\[14\]
*341 chain\[15\]
*342 chain\[16\]
*343 chain\[17\]
*344 chain\[18\]
*345 chain\[19\]
*346 chain\[1\]
*347 chain\[20\]
*348 chain\[21\]
*349 chain\[22\]
*350 chain\[23\]
*351 chain\[24\]
*352 chain\[25\]
*353 chain\[26\]
*354 chain\[27\]
*355 chain\[28\]
*356 chain\[29\]
*357 chain\[2\]
*358 chain\[30\]
*359 chain\[31\]
*360 chain\[32\]
*361 chain\[33\]
*362 chain\[34\]
*363 chain\[35\]
*364 chain\[36\]
*365 chain\[37\]
*366 chain\[38\]
*367 chain\[39\]
*368 chain\[3\]
*369 chain\[40\]
*370 chain\[41\]
*371 chain\[42\]
*372 chain\[43\]
*373 chain\[44\]
*374 chain\[45\]
*375 chain\[46\]
*376 chain\[47\]
*377 chain\[48\]
*378 chain\[49\]
*379 chain\[4\]
*380 chain\[50\]
*381 chain\[51\]
*382 chain\[52\]
*383 chain\[53\]
*384 chain\[54\]
*385 chain\[55\]
*386 chain\[56\]
*387 chain\[57\]
*388 chain\[58\]
*389 chain\[59\]
*390 chain\[5\]
*391 chain\[60\]
*392 chain\[61\]
*393 chain\[62\]
*394 chain\[63\]
*395 chain\[6\]
*396 chain\[7\]
*397 chain\[8\]
*398 chain\[9\]
*399 clknet_0_clk
*400 clknet_1_0__leaf_clk
*401 clknet_1_1__leaf_clk
*402 cmux\.vbuf\[0\]
*403 cmux\.vbuf\[10\]
*404 cmux\.vbuf\[11\]
*405 cmux\.vbuf\[12\]
*406 cmux\.vbuf\[13\]
*407 cmux\.vbuf\[14\]
*408 cmux\.vbuf\[15\]
*409 cmux\.vbuf\[16\]
*410 cmux\.vbuf\[17\]
*411 cmux\.vbuf\[18\]
*412 cmux\.vbuf\[19\]
*413 cmux\.vbuf\[1\]
*414 cmux\.vbuf\[20\]
*415 cmux\.vbuf\[21\]
*416 cmux\.vbuf\[22\]
*417 cmux\.vbuf\[23\]
*418 cmux\.vbuf\[24\]
*419 cmux\.vbuf\[25\]
*420 cmux\.vbuf\[26\]
*421 cmux\.vbuf\[27\]
*422 cmux\.vbuf\[28\]
*423 cmux\.vbuf\[29\]
*424 cmux\.vbuf\[2\]
*425 cmux\.vbuf\[30\]
*426 cmux\.vbuf\[31\]
*427 cmux\.vbuf\[32\]
*428 cmux\.vbuf\[33\]
*429 cmux\.vbuf\[34\]
*430 cmux\.vbuf\[35\]
*431 cmux\.vbuf\[36\]
*432 cmux\.vbuf\[37\]
*433 cmux\.vbuf\[38\]
*434 cmux\.vbuf\[39\]
*435 cmux\.vbuf\[3\]
*436 cmux\.vbuf\[40\]
*437 cmux\.vbuf\[41\]
*438 cmux\.vbuf\[42\]
*439 cmux\.vbuf\[43\]
*440 cmux\.vbuf\[44\]
*441 cmux\.vbuf\[45\]
*442 cmux\.vbuf\[46\]
*443 cmux\.vbuf\[47\]
*444 cmux\.vbuf\[48\]
*445 cmux\.vbuf\[49\]
*446 cmux\.vbuf\[4\]
*447 cmux\.vbuf\[50\]
*448 cmux\.vbuf\[51\]
*449 cmux\.vbuf\[52\]
*450 cmux\.vbuf\[53\]
*451 cmux\.vbuf\[54\]
*452 cmux\.vbuf\[55\]
*453 cmux\.vbuf\[56\]
*454 cmux\.vbuf\[57\]
*455 cmux\.vbuf\[58\]
*456 cmux\.vbuf\[59\]
*457 cmux\.vbuf\[5\]
*458 cmux\.vbuf\[60\]
*459 cmux\.vbuf\[61\]
*460 cmux\.vbuf\[62\]
*461 cmux\.vbuf\[63\]
*462 cmux\.vbuf\[6\]
*463 cmux\.vbuf\[7\]
*464 cmux\.vbuf\[8\]
*465 cmux\.vbuf\[9\]
*466 col_count\[0\]
*467 col_count\[1\]
*468 col_count\[2\]
*469 col_count\[3\]
*470 col_count\[4\]
*471 dcounter\[0\]
*472 dcounter\[1\]
*473 dcounter\[2\]
*474 dcounter\[3\]
*475 dcounter\[4\]
*476 dcounter\[5\]
*477 dcounter\[6\]
*478 dcounter\[7\]
*479 net1
*480 net10
*481 net11
*482 net12
*483 net13
*484 net14
*485 net15
*486 net16
*487 net17
*488 net18
*489 net19
*490 net2
*491 net20
*492 net21
*493 net22
*494 net23
*495 net24
*496 net25
*497 net26
*498 net27
*499 net28
*500 net3
*501 net37
*502 net38
*503 net39
*504 net4
*505 net40
*506 net41
*507 net5
*508 net6
*509 net7
*510 net8
*511 net9
*512 sclk
*513 FILLER_0_0_109
*514 FILLER_0_0_113
*515 FILLER_0_0_125
*516 FILLER_0_0_137
*517 FILLER_0_0_141
*518 FILLER_0_0_15
*519 FILLER_0_0_153
*520 FILLER_0_0_165
*521 FILLER_0_0_169
*522 FILLER_0_0_181
*523 FILLER_0_0_193
*524 FILLER_0_0_197
*525 FILLER_0_0_209
*526 FILLER_0_0_221
*527 FILLER_0_0_225
*528 FILLER_0_0_237
*529 FILLER_0_0_249
*530 FILLER_0_0_253
*531 FILLER_0_0_265
*532 FILLER_0_0_27
*533 FILLER_0_0_277
*534 FILLER_0_0_281
*535 FILLER_0_0_29
*536 FILLER_0_0_293
*537 FILLER_0_0_3
*538 FILLER_0_0_305
*539 FILLER_0_0_309
*540 FILLER_0_0_321
*541 FILLER_0_0_333
*542 FILLER_0_0_337
*543 FILLER_0_0_349
*544 FILLER_0_0_41
*545 FILLER_0_0_53
*546 FILLER_0_0_57
*547 FILLER_0_0_69
*548 FILLER_0_0_81
*549 FILLER_0_0_85
*550 FILLER_0_0_97
*551 FILLER_0_10_109
*552 FILLER_0_10_121
*553 FILLER_0_10_133
*554 FILLER_0_10_139
*555 FILLER_0_10_141
*556 FILLER_0_10_15
*557 FILLER_0_10_153
*558 FILLER_0_10_165
*559 FILLER_0_10_177
*560 FILLER_0_10_189
*561 FILLER_0_10_195
*562 FILLER_0_10_197
*563 FILLER_0_10_209
*564 FILLER_0_10_221
*565 FILLER_0_10_233
*566 FILLER_0_10_245
*567 FILLER_0_10_251
*568 FILLER_0_10_253
*569 FILLER_0_10_265
*570 FILLER_0_10_27
*571 FILLER_0_10_277
*572 FILLER_0_10_289
*573 FILLER_0_10_29
*574 FILLER_0_10_3
*575 FILLER_0_10_301
*576 FILLER_0_10_307
*577 FILLER_0_10_309
*578 FILLER_0_10_321
*579 FILLER_0_10_333
*580 FILLER_0_10_345
*581 FILLER_0_10_41
*582 FILLER_0_10_53
*583 FILLER_0_10_65
*584 FILLER_0_10_77
*585 FILLER_0_10_83
*586 FILLER_0_10_85
*587 FILLER_0_10_97
*588 FILLER_0_11_105
*589 FILLER_0_11_111
*590 FILLER_0_11_113
*591 FILLER_0_11_125
*592 FILLER_0_11_137
*593 FILLER_0_11_149
*594 FILLER_0_11_15
*595 FILLER_0_11_161
*596 FILLER_0_11_167
*597 FILLER_0_11_169
*598 FILLER_0_11_181
*599 FILLER_0_11_193
*600 FILLER_0_11_205
*601 FILLER_0_11_217
*602 FILLER_0_11_223
*603 FILLER_0_11_225
*604 FILLER_0_11_237
*605 FILLER_0_11_249
*606 FILLER_0_11_261
*607 FILLER_0_11_27
*608 FILLER_0_11_273
*609 FILLER_0_11_279
*610 FILLER_0_11_281
*611 FILLER_0_11_293
*612 FILLER_0_11_3
*613 FILLER_0_11_305
*614 FILLER_0_11_317
*615 FILLER_0_11_329
*616 FILLER_0_11_335
*617 FILLER_0_11_337
*618 FILLER_0_11_349
*619 FILLER_0_11_39
*620 FILLER_0_11_51
*621 FILLER_0_11_55
*622 FILLER_0_11_57
*623 FILLER_0_11_69
*624 FILLER_0_11_81
*625 FILLER_0_11_93
*626 FILLER_0_12_109
*627 FILLER_0_12_121
*628 FILLER_0_12_133
*629 FILLER_0_12_139
*630 FILLER_0_12_141
*631 FILLER_0_12_15
*632 FILLER_0_12_153
*633 FILLER_0_12_165
*634 FILLER_0_12_177
*635 FILLER_0_12_189
*636 FILLER_0_12_195
*637 FILLER_0_12_197
*638 FILLER_0_12_209
*639 FILLER_0_12_221
*640 FILLER_0_12_233
*641 FILLER_0_12_245
*642 FILLER_0_12_251
*643 FILLER_0_12_253
*644 FILLER_0_12_265
*645 FILLER_0_12_27
*646 FILLER_0_12_277
*647 FILLER_0_12_289
*648 FILLER_0_12_29
*649 FILLER_0_12_3
*650 FILLER_0_12_301
*651 FILLER_0_12_307
*652 FILLER_0_12_309
*653 FILLER_0_12_321
*654 FILLER_0_12_333
*655 FILLER_0_12_345
*656 FILLER_0_12_41
*657 FILLER_0_12_53
*658 FILLER_0_12_65
*659 FILLER_0_12_77
*660 FILLER_0_12_83
*661 FILLER_0_12_85
*662 FILLER_0_12_97
*663 FILLER_0_13_105
*664 FILLER_0_13_111
*665 FILLER_0_13_113
*666 FILLER_0_13_125
*667 FILLER_0_13_137
*668 FILLER_0_13_149
*669 FILLER_0_13_15
*670 FILLER_0_13_161
*671 FILLER_0_13_167
*672 FILLER_0_13_169
*673 FILLER_0_13_181
*674 FILLER_0_13_193
*675 FILLER_0_13_205
*676 FILLER_0_13_217
*677 FILLER_0_13_223
*678 FILLER_0_13_225
*679 FILLER_0_13_237
*680 FILLER_0_13_249
*681 FILLER_0_13_261
*682 FILLER_0_13_27
*683 FILLER_0_13_273
*684 FILLER_0_13_279
*685 FILLER_0_13_281
*686 FILLER_0_13_293
*687 FILLER_0_13_3
*688 FILLER_0_13_305
*689 FILLER_0_13_317
*690 FILLER_0_13_329
*691 FILLER_0_13_335
*692 FILLER_0_13_337
*693 FILLER_0_13_349
*694 FILLER_0_13_39
*695 FILLER_0_13_51
*696 FILLER_0_13_55
*697 FILLER_0_13_57
*698 FILLER_0_13_69
*699 FILLER_0_13_81
*700 FILLER_0_13_93
*701 FILLER_0_14_109
*702 FILLER_0_14_121
*703 FILLER_0_14_133
*704 FILLER_0_14_139
*705 FILLER_0_14_141
*706 FILLER_0_14_15
*707 FILLER_0_14_153
*708 FILLER_0_14_165
*709 FILLER_0_14_177
*710 FILLER_0_14_189
*711 FILLER_0_14_195
*712 FILLER_0_14_197
*713 FILLER_0_14_208
*714 FILLER_0_14_220
*715 FILLER_0_14_232
*716 FILLER_0_14_244
*717 FILLER_0_14_253
*718 FILLER_0_14_265
*719 FILLER_0_14_27
*720 FILLER_0_14_277
*721 FILLER_0_14_289
*722 FILLER_0_14_29
*723 FILLER_0_14_3
*724 FILLER_0_14_301
*725 FILLER_0_14_307
*726 FILLER_0_14_309
*727 FILLER_0_14_321
*728 FILLER_0_14_333
*729 FILLER_0_14_345
*730 FILLER_0_14_41
*731 FILLER_0_14_53
*732 FILLER_0_14_65
*733 FILLER_0_14_77
*734 FILLER_0_14_83
*735 FILLER_0_14_85
*736 FILLER_0_14_97
*737 FILLER_0_15_105
*738 FILLER_0_15_111
*739 FILLER_0_15_113
*740 FILLER_0_15_125
*741 FILLER_0_15_137
*742 FILLER_0_15_149
*743 FILLER_0_15_15
*744 FILLER_0_15_161
*745 FILLER_0_15_167
*746 FILLER_0_15_169
*747 FILLER_0_15_196
*748 FILLER_0_15_216
*749 FILLER_0_15_225
*750 FILLER_0_15_237
*751 FILLER_0_15_27
*752 FILLER_0_15_275
*753 FILLER_0_15_279
*754 FILLER_0_15_281
*755 FILLER_0_15_293
*756 FILLER_0_15_3
*757 FILLER_0_15_305
*758 FILLER_0_15_317
*759 FILLER_0_15_329
*760 FILLER_0_15_335
*761 FILLER_0_15_337
*762 FILLER_0_15_349
*763 FILLER_0_15_39
*764 FILLER_0_15_51
*765 FILLER_0_15_55
*766 FILLER_0_15_57
*767 FILLER_0_15_69
*768 FILLER_0_15_81
*769 FILLER_0_15_93
*770 FILLER_0_16_105
*771 FILLER_0_16_123
*772 FILLER_0_16_130
*773 FILLER_0_16_138
*774 FILLER_0_16_146
*775 FILLER_0_16_15
*776 FILLER_0_16_154
*777 FILLER_0_16_172
*778 FILLER_0_16_190
*779 FILLER_0_16_197
*780 FILLER_0_16_203
*781 FILLER_0_16_209
*782 FILLER_0_16_213
*783 FILLER_0_16_219
*784 FILLER_0_16_241
*785 FILLER_0_16_245
*786 FILLER_0_16_253
*787 FILLER_0_16_27
*788 FILLER_0_16_283
*789 FILLER_0_16_29
*790 FILLER_0_16_295
*791 FILLER_0_16_3
*792 FILLER_0_16_307
*793 FILLER_0_16_309
*794 FILLER_0_16_321
*795 FILLER_0_16_333
*796 FILLER_0_16_345
*797 FILLER_0_16_41
*798 FILLER_0_16_53
*799 FILLER_0_16_65
*800 FILLER_0_16_77
*801 FILLER_0_16_83
*802 FILLER_0_16_85
*803 FILLER_0_16_97
*804 FILLER_0_17_111
*805 FILLER_0_17_113
*806 FILLER_0_17_15
*807 FILLER_0_17_161
*808 FILLER_0_17_167
*809 FILLER_0_17_169
*810 FILLER_0_17_216
*811 FILLER_0_17_241
*812 FILLER_0_17_27
*813 FILLER_0_17_279
*814 FILLER_0_17_281
*815 FILLER_0_17_293
*816 FILLER_0_17_3
*817 FILLER_0_17_305
*818 FILLER_0_17_317
*819 FILLER_0_17_329
*820 FILLER_0_17_335
*821 FILLER_0_17_337
*822 FILLER_0_17_349
*823 FILLER_0_17_39
*824 FILLER_0_17_51
*825 FILLER_0_17_55
*826 FILLER_0_17_57
*827 FILLER_0_17_69
*828 FILLER_0_17_81
*829 FILLER_0_17_93
*830 FILLER_0_17_97
*831 FILLER_0_18_106
*832 FILLER_0_18_141
*833 FILLER_0_18_145
*834 FILLER_0_18_15
*835 FILLER_0_18_181
*836 FILLER_0_18_207
*837 FILLER_0_18_219
*838 FILLER_0_18_231
*839 FILLER_0_18_243
*840 FILLER_0_18_251
*841 FILLER_0_18_253
*842 FILLER_0_18_27
*843 FILLER_0_18_276
*844 FILLER_0_18_288
*845 FILLER_0_18_29
*846 FILLER_0_18_3
*847 FILLER_0_18_300
*848 FILLER_0_18_309
*849 FILLER_0_18_321
*850 FILLER_0_18_333
*851 FILLER_0_18_345
*852 FILLER_0_18_41
*853 FILLER_0_18_53
*854 FILLER_0_18_65
*855 FILLER_0_18_77
*856 FILLER_0_18_83
*857 FILLER_0_18_85
*858 FILLER_0_18_89
*859 FILLER_0_19_108
*860 FILLER_0_19_113
*861 FILLER_0_19_125
*862 FILLER_0_19_137
*863 FILLER_0_19_145
*864 FILLER_0_19_15
*865 FILLER_0_19_163
*866 FILLER_0_19_167
*867 FILLER_0_19_176
*868 FILLER_0_19_180
*869 FILLER_0_19_197
*870 FILLER_0_19_221
*871 FILLER_0_19_228
*872 FILLER_0_19_247
*873 FILLER_0_19_259
*874 FILLER_0_19_27
*875 FILLER_0_19_271
*876 FILLER_0_19_279
*877 FILLER_0_19_281
*878 FILLER_0_19_293
*879 FILLER_0_19_3
*880 FILLER_0_19_305
*881 FILLER_0_19_317
*882 FILLER_0_19_329
*883 FILLER_0_19_335
*884 FILLER_0_19_337
*885 FILLER_0_19_349
*886 FILLER_0_19_39
*887 FILLER_0_19_51
*888 FILLER_0_19_55
*889 FILLER_0_19_57
*890 FILLER_0_19_63
*891 FILLER_0_19_72
*892 FILLER_0_1_105
*893 FILLER_0_1_111
*894 FILLER_0_1_113
*895 FILLER_0_1_125
*896 FILLER_0_1_137
*897 FILLER_0_1_149
*898 FILLER_0_1_15
*899 FILLER_0_1_161
*900 FILLER_0_1_167
*901 FILLER_0_1_169
*902 FILLER_0_1_181
*903 FILLER_0_1_193
*904 FILLER_0_1_205
*905 FILLER_0_1_217
*906 FILLER_0_1_223
*907 FILLER_0_1_225
*908 FILLER_0_1_237
*909 FILLER_0_1_249
*910 FILLER_0_1_261
*911 FILLER_0_1_27
*912 FILLER_0_1_273
*913 FILLER_0_1_279
*914 FILLER_0_1_281
*915 FILLER_0_1_293
*916 FILLER_0_1_3
*917 FILLER_0_1_305
*918 FILLER_0_1_317
*919 FILLER_0_1_329
*920 FILLER_0_1_335
*921 FILLER_0_1_337
*922 FILLER_0_1_349
*923 FILLER_0_1_39
*924 FILLER_0_1_51
*925 FILLER_0_1_55
*926 FILLER_0_1_57
*927 FILLER_0_1_69
*928 FILLER_0_1_81
*929 FILLER_0_1_93
*930 FILLER_0_20_110
*931 FILLER_0_20_122
*932 FILLER_0_20_134
*933 FILLER_0_20_141
*934 FILLER_0_20_147
*935 FILLER_0_20_15
*936 FILLER_0_20_159
*937 FILLER_0_20_171
*938 FILLER_0_20_183
*939 FILLER_0_20_195
*940 FILLER_0_20_202
*941 FILLER_0_20_214
*942 FILLER_0_20_245
*943 FILLER_0_20_251
*944 FILLER_0_20_258
*945 FILLER_0_20_27
*946 FILLER_0_20_282
*947 FILLER_0_20_29
*948 FILLER_0_20_3
*949 FILLER_0_20_303
*950 FILLER_0_20_307
*951 FILLER_0_20_309
*952 FILLER_0_20_321
*953 FILLER_0_20_333
*954 FILLER_0_20_345
*955 FILLER_0_20_35
*956 FILLER_0_20_48
*957 FILLER_0_20_66
*958 FILLER_0_20_98
*959 FILLER_0_21_11
*960 FILLER_0_21_110
*961 FILLER_0_21_113
*962 FILLER_0_21_133
*963 FILLER_0_21_157
*964 FILLER_0_21_165
*965 FILLER_0_21_169
*966 FILLER_0_21_181
*967 FILLER_0_21_200
*968 FILLER_0_21_212
*969 FILLER_0_21_223
*970 FILLER_0_21_225
*971 FILLER_0_21_237
*972 FILLER_0_21_249
*973 FILLER_0_21_3
*974 FILLER_0_21_329
*975 FILLER_0_21_335
*976 FILLER_0_21_337
*977 FILLER_0_21_349
*978 FILLER_0_21_46
*979 FILLER_0_21_52
*980 FILLER_0_21_89
*981 FILLER_0_21_93
*982 FILLER_0_22_130
*983 FILLER_0_22_141
*984 FILLER_0_22_15
*985 FILLER_0_22_177
*986 FILLER_0_22_197
*987 FILLER_0_22_205
*988 FILLER_0_22_213
*989 FILLER_0_22_23
*990 FILLER_0_22_238
*991 FILLER_0_22_250
*992 FILLER_0_22_253
*993 FILLER_0_22_273
*994 FILLER_0_22_285
*995 FILLER_0_22_3
*996 FILLER_0_22_302
*997 FILLER_0_22_314
*998 FILLER_0_22_326
*999 FILLER_0_22_338
*1000 FILLER_0_22_350
*1001 FILLER_0_22_53
*1002 FILLER_0_22_65
*1003 FILLER_0_22_77
*1004 FILLER_0_22_83
*1005 FILLER_0_22_85
*1006 FILLER_0_22_97
*1007 FILLER_0_23_110
*1008 FILLER_0_23_113
*1009 FILLER_0_23_127
*1010 FILLER_0_23_139
*1011 FILLER_0_23_143
*1012 FILLER_0_23_15
*1013 FILLER_0_23_152
*1014 FILLER_0_23_164
*1015 FILLER_0_23_169
*1016 FILLER_0_23_179
*1017 FILLER_0_23_203
*1018 FILLER_0_23_223
*1019 FILLER_0_23_225
*1020 FILLER_0_23_23
*1021 FILLER_0_23_246
*1022 FILLER_0_23_250
*1023 FILLER_0_23_254
*1024 FILLER_0_23_266
*1025 FILLER_0_23_278
*1026 FILLER_0_23_281
*1027 FILLER_0_23_3
*1028 FILLER_0_23_316
*1029 FILLER_0_23_328
*1030 FILLER_0_23_337
*1031 FILLER_0_23_349
*1032 FILLER_0_23_42
*1033 FILLER_0_23_54
*1034 FILLER_0_23_57
*1035 FILLER_0_23_78
*1036 FILLER_0_23_90
*1037 FILLER_0_24_100
*1038 FILLER_0_24_11
*1039 FILLER_0_24_112
*1040 FILLER_0_24_117
*1041 FILLER_0_24_127
*1042 FILLER_0_24_139
*1043 FILLER_0_24_141
*1044 FILLER_0_24_153
*1045 FILLER_0_24_179
*1046 FILLER_0_24_191
*1047 FILLER_0_24_195
*1048 FILLER_0_24_197
*1049 FILLER_0_24_213
*1050 FILLER_0_24_225
*1051 FILLER_0_24_237
*1052 FILLER_0_24_251
*1053 FILLER_0_24_263
*1054 FILLER_0_24_275
*1055 FILLER_0_24_3
*1056 FILLER_0_24_313
*1057 FILLER_0_24_32
*1058 FILLER_0_24_325
*1059 FILLER_0_24_337
*1060 FILLER_0_24_349
*1061 FILLER_0_24_44
*1062 FILLER_0_24_56
*1063 FILLER_0_24_78
*1064 FILLER_0_24_85
*1065 FILLER_0_25_104
*1066 FILLER_0_25_113
*1067 FILLER_0_25_122
*1068 FILLER_0_25_134
*1069 FILLER_0_25_146
*1070 FILLER_0_25_154
*1071 FILLER_0_25_162
*1072 FILLER_0_25_185
*1073 FILLER_0_25_197
*1074 FILLER_0_25_201
*1075 FILLER_0_25_218
*1076 FILLER_0_25_225
*1077 FILLER_0_25_237
*1078 FILLER_0_25_274
*1079 FILLER_0_25_3
*1080 FILLER_0_25_31
*1081 FILLER_0_25_316
*1082 FILLER_0_25_328
*1083 FILLER_0_25_337
*1084 FILLER_0_25_349
*1085 FILLER_0_25_48
*1086 FILLER_0_25_92
*1087 FILLER_0_26_105
*1088 FILLER_0_26_133
*1089 FILLER_0_26_139
*1090 FILLER_0_26_173
*1091 FILLER_0_26_188
*1092 FILLER_0_26_213
*1093 FILLER_0_26_225
*1094 FILLER_0_26_237
*1095 FILLER_0_26_243
*1096 FILLER_0_26_269
*1097 FILLER_0_26_27
*1098 FILLER_0_26_281
*1099 FILLER_0_26_285
*1100 FILLER_0_26_29
*1101 FILLER_0_26_3
*1102 FILLER_0_26_306
*1103 FILLER_0_26_317
*1104 FILLER_0_26_329
*1105 FILLER_0_26_341
*1106 FILLER_0_26_349
*1107 FILLER_0_26_47
*1108 FILLER_0_26_53
*1109 FILLER_0_26_65
*1110 FILLER_0_26_7
*1111 FILLER_0_26_77
*1112 FILLER_0_26_83
*1113 FILLER_0_26_85
*1114 FILLER_0_27_108
*1115 FILLER_0_27_113
*1116 FILLER_0_27_137
*1117 FILLER_0_27_15
*1118 FILLER_0_27_159
*1119 FILLER_0_27_163
*1120 FILLER_0_27_167
*1121 FILLER_0_27_169
*1122 FILLER_0_27_21
*1123 FILLER_0_27_222
*1124 FILLER_0_27_225
*1125 FILLER_0_27_237
*1126 FILLER_0_27_27
*1127 FILLER_0_27_275
*1128 FILLER_0_27_279
*1129 FILLER_0_27_281
*1130 FILLER_0_27_289
*1131 FILLER_0_27_3
*1132 FILLER_0_27_308
*1133 FILLER_0_27_320
*1134 FILLER_0_27_332
*1135 FILLER_0_27_337
*1136 FILLER_0_27_349
*1137 FILLER_0_27_35
*1138 FILLER_0_27_52
*1139 FILLER_0_27_57
*1140 FILLER_0_27_69
*1141 FILLER_0_27_75
*1142 FILLER_0_28_103
*1143 FILLER_0_28_108
*1144 FILLER_0_28_116
*1145 FILLER_0_28_127
*1146 FILLER_0_28_133
*1147 FILLER_0_28_139
*1148 FILLER_0_28_141
*1149 FILLER_0_28_151
*1150 FILLER_0_28_163
*1151 FILLER_0_28_175
*1152 FILLER_0_28_179
*1153 FILLER_0_28_184
*1154 FILLER_0_28_190
*1155 FILLER_0_28_221
*1156 FILLER_0_28_23
*1157 FILLER_0_28_233
*1158 FILLER_0_28_261
*1159 FILLER_0_28_27
*1160 FILLER_0_28_273
*1161 FILLER_0_28_279
*1162 FILLER_0_28_29
*1163 FILLER_0_28_3
*1164 FILLER_0_28_307
*1165 FILLER_0_28_329
*1166 FILLER_0_28_341
*1167 FILLER_0_28_349
*1168 FILLER_0_28_37
*1169 FILLER_0_28_47
*1170 FILLER_0_28_55
*1171 FILLER_0_28_69
*1172 FILLER_0_28_81
*1173 FILLER_0_28_95
*1174 FILLER_0_29_111
*1175 FILLER_0_29_113
*1176 FILLER_0_29_121
*1177 FILLER_0_29_128
*1178 FILLER_0_29_151
*1179 FILLER_0_29_169
*1180 FILLER_0_29_188
*1181 FILLER_0_29_220
*1182 FILLER_0_29_225
*1183 FILLER_0_29_237
*1184 FILLER_0_29_244
*1185 FILLER_0_29_266
*1186 FILLER_0_29_274
*1187 FILLER_0_29_297
*1188 FILLER_0_29_3
*1189 FILLER_0_29_30
*1190 FILLER_0_29_312
*1191 FILLER_0_29_324
*1192 FILLER_0_29_337
*1193 FILLER_0_29_349
*1194 FILLER_0_29_52
*1195 FILLER_0_29_57
*1196 FILLER_0_29_69
*1197 FILLER_0_29_77
*1198 FILLER_0_29_99
*1199 FILLER_0_2_109
*1200 FILLER_0_2_121
*1201 FILLER_0_2_133
*1202 FILLER_0_2_139
*1203 FILLER_0_2_141
*1204 FILLER_0_2_15
*1205 FILLER_0_2_153
*1206 FILLER_0_2_165
*1207 FILLER_0_2_177
*1208 FILLER_0_2_189
*1209 FILLER_0_2_195
*1210 FILLER_0_2_197
*1211 FILLER_0_2_209
*1212 FILLER_0_2_221
*1213 FILLER_0_2_233
*1214 FILLER_0_2_245
*1215 FILLER_0_2_251
*1216 FILLER_0_2_253
*1217 FILLER_0_2_265
*1218 FILLER_0_2_27
*1219 FILLER_0_2_277
*1220 FILLER_0_2_289
*1221 FILLER_0_2_29
*1222 FILLER_0_2_3
*1223 FILLER_0_2_301
*1224 FILLER_0_2_307
*1225 FILLER_0_2_309
*1226 FILLER_0_2_321
*1227 FILLER_0_2_333
*1228 FILLER_0_2_345
*1229 FILLER_0_2_41
*1230 FILLER_0_2_53
*1231 FILLER_0_2_65
*1232 FILLER_0_2_77
*1233 FILLER_0_2_83
*1234 FILLER_0_2_85
*1235 FILLER_0_2_97
*1236 FILLER_0_30_104
*1237 FILLER_0_30_118
*1238 FILLER_0_30_162
*1239 FILLER_0_30_179
*1240 FILLER_0_30_197
*1241 FILLER_0_30_217
*1242 FILLER_0_30_229
*1243 FILLER_0_30_235
*1244 FILLER_0_30_24
*1245 FILLER_0_30_253
*1246 FILLER_0_30_260
*1247 FILLER_0_30_278
*1248 FILLER_0_30_3
*1249 FILLER_0_30_302
*1250 FILLER_0_30_309
*1251 FILLER_0_30_317
*1252 FILLER_0_30_335
*1253 FILLER_0_30_34
*1254 FILLER_0_30_347
*1255 FILLER_0_30_55
*1256 FILLER_0_30_7
*1257 FILLER_0_30_70
*1258 FILLER_0_30_78
*1259 FILLER_0_31_167
*1260 FILLER_0_31_169
*1261 FILLER_0_31_177
*1262 FILLER_0_31_195
*1263 FILLER_0_31_222
*1264 FILLER_0_31_225
*1265 FILLER_0_31_250
*1266 FILLER_0_31_268
*1267 FILLER_0_31_297
*1268 FILLER_0_31_3
*1269 FILLER_0_31_309
*1270 FILLER_0_31_335
*1271 FILLER_0_31_343
*1272 FILLER_0_31_51
*1273 FILLER_0_31_55
*1274 FILLER_0_31_57
*1275 FILLER_0_31_66
*1276 FILLER_0_31_95
*1277 FILLER_0_32_101
*1278 FILLER_0_32_113
*1279 FILLER_0_32_125
*1280 FILLER_0_32_133
*1281 FILLER_0_32_141
*1282 FILLER_0_32_164
*1283 FILLER_0_32_197
*1284 FILLER_0_32_217
*1285 FILLER_0_32_225
*1286 FILLER_0_32_248
*1287 FILLER_0_32_253
*1288 FILLER_0_32_265
*1289 FILLER_0_32_27
*1290 FILLER_0_32_277
*1291 FILLER_0_32_289
*1292 FILLER_0_32_29
*1293 FILLER_0_32_3
*1294 FILLER_0_32_301
*1295 FILLER_0_32_345
*1296 FILLER_0_32_41
*1297 FILLER_0_32_7
*1298 FILLER_0_32_76
*1299 FILLER_0_32_89
*1300 FILLER_0_33_107
*1301 FILLER_0_33_111
*1302 FILLER_0_33_124
*1303 FILLER_0_33_132
*1304 FILLER_0_33_15
*1305 FILLER_0_33_153
*1306 FILLER_0_33_159
*1307 FILLER_0_33_163
*1308 FILLER_0_33_167
*1309 FILLER_0_33_174
*1310 FILLER_0_33_182
*1311 FILLER_0_33_188
*1312 FILLER_0_33_213
*1313 FILLER_0_33_221
*1314 FILLER_0_33_225
*1315 FILLER_0_33_233
*1316 FILLER_0_33_238
*1317 FILLER_0_33_24
*1318 FILLER_0_33_250
*1319 FILLER_0_33_262
*1320 FILLER_0_33_274
*1321 FILLER_0_33_281
*1322 FILLER_0_33_293
*1323 FILLER_0_33_3
*1324 FILLER_0_33_335
*1325 FILLER_0_33_344
*1326 FILLER_0_33_350
*1327 FILLER_0_33_36
*1328 FILLER_0_33_48
*1329 FILLER_0_33_57
*1330 FILLER_0_33_63
*1331 FILLER_0_33_67
*1332 FILLER_0_33_71
*1333 FILLER_0_33_83
*1334 FILLER_0_33_95
*1335 FILLER_0_34_103
*1336 FILLER_0_34_115
*1337 FILLER_0_34_127
*1338 FILLER_0_34_139
*1339 FILLER_0_34_141
*1340 FILLER_0_34_15
*1341 FILLER_0_34_153
*1342 FILLER_0_34_176
*1343 FILLER_0_34_188
*1344 FILLER_0_34_216
*1345 FILLER_0_34_228
*1346 FILLER_0_34_237
*1347 FILLER_0_34_250
*1348 FILLER_0_34_253
*1349 FILLER_0_34_259
*1350 FILLER_0_34_27
*1351 FILLER_0_34_283
*1352 FILLER_0_34_29
*1353 FILLER_0_34_295
*1354 FILLER_0_34_3
*1355 FILLER_0_34_349
*1356 FILLER_0_34_41
*1357 FILLER_0_34_49
*1358 FILLER_0_34_75
*1359 FILLER_0_34_83
*1360 FILLER_0_34_85
*1361 FILLER_0_35_121
*1362 FILLER_0_35_132
*1363 FILLER_0_35_138
*1364 FILLER_0_35_142
*1365 FILLER_0_35_15
*1366 FILLER_0_35_166
*1367 FILLER_0_35_169
*1368 FILLER_0_35_181
*1369 FILLER_0_35_214
*1370 FILLER_0_35_222
*1371 FILLER_0_35_225
*1372 FILLER_0_35_229
*1373 FILLER_0_35_265
*1374 FILLER_0_35_27
*1375 FILLER_0_35_271
*1376 FILLER_0_35_276
*1377 FILLER_0_35_281
*1378 FILLER_0_35_293
*1379 FILLER_0_35_3
*1380 FILLER_0_35_334
*1381 FILLER_0_35_341
*1382 FILLER_0_35_349
*1383 FILLER_0_35_39
*1384 FILLER_0_35_47
*1385 FILLER_0_35_80
*1386 FILLER_0_35_91
*1387 FILLER_0_35_95
*1388 FILLER_0_36_101
*1389 FILLER_0_36_117
*1390 FILLER_0_36_139
*1391 FILLER_0_36_146
*1392 FILLER_0_36_15
*1393 FILLER_0_36_173
*1394 FILLER_0_36_216
*1395 FILLER_0_36_251
*1396 FILLER_0_36_27
*1397 FILLER_0_36_279
*1398 FILLER_0_36_29
*1399 FILLER_0_36_291
*1400 FILLER_0_36_295
*1401 FILLER_0_36_3
*1402 FILLER_0_36_348
*1403 FILLER_0_36_41
*1404 FILLER_0_36_47
*1405 FILLER_0_36_79
*1406 FILLER_0_37_122
*1407 FILLER_0_37_148
*1408 FILLER_0_37_15
*1409 FILLER_0_37_166
*1410 FILLER_0_37_169
*1411 FILLER_0_37_177
*1412 FILLER_0_37_219
*1413 FILLER_0_37_223
*1414 FILLER_0_37_238
*1415 FILLER_0_37_256
*1416 FILLER_0_37_27
*1417 FILLER_0_37_289
*1418 FILLER_0_37_299
*1419 FILLER_0_37_3
*1420 FILLER_0_37_348
*1421 FILLER_0_37_39
*1422 FILLER_0_37_51
*1423 FILLER_0_37_55
*1424 FILLER_0_37_73
*1425 FILLER_0_37_84
*1426 FILLER_0_37_94
*1427 FILLER_0_38_108
*1428 FILLER_0_38_113
*1429 FILLER_0_38_125
*1430 FILLER_0_38_137
*1431 FILLER_0_38_14
*1432 FILLER_0_38_141
*1433 FILLER_0_38_153
*1434 FILLER_0_38_165
*1435 FILLER_0_38_169
*1436 FILLER_0_38_18
*1437 FILLER_0_38_181
*1438 FILLER_0_38_193
*1439 FILLER_0_38_201
*1440 FILLER_0_38_205
*1441 FILLER_0_38_217
*1442 FILLER_0_38_22
*1443 FILLER_0_38_223
*1444 FILLER_0_38_225
*1445 FILLER_0_38_237
*1446 FILLER_0_38_243
*1447 FILLER_0_38_249
*1448 FILLER_0_38_253
*1449 FILLER_0_38_265
*1450 FILLER_0_38_279
*1451 FILLER_0_38_287
*1452 FILLER_0_38_3
*1453 FILLER_0_38_32
*1454 FILLER_0_38_333
*1455 FILLER_0_38_38
*1456 FILLER_0_38_42
*1457 FILLER_0_38_46
*1458 FILLER_0_38_50
*1459 FILLER_0_38_54
*1460 FILLER_0_38_57
*1461 FILLER_0_38_62
*1462 FILLER_0_38_78
*1463 FILLER_0_38_85
*1464 FILLER_0_38_97
*1465 FILLER_0_3_105
*1466 FILLER_0_3_111
*1467 FILLER_0_3_113
*1468 FILLER_0_3_125
*1469 FILLER_0_3_137
*1470 FILLER_0_3_149
*1471 FILLER_0_3_15
*1472 FILLER_0_3_161
*1473 FILLER_0_3_167
*1474 FILLER_0_3_169
*1475 FILLER_0_3_181
*1476 FILLER_0_3_193
*1477 FILLER_0_3_205
*1478 FILLER_0_3_217
*1479 FILLER_0_3_223
*1480 FILLER_0_3_225
*1481 FILLER_0_3_237
*1482 FILLER_0_3_249
*1483 FILLER_0_3_261
*1484 FILLER_0_3_27
*1485 FILLER_0_3_273
*1486 FILLER_0_3_279
*1487 FILLER_0_3_281
*1488 FILLER_0_3_293
*1489 FILLER_0_3_3
*1490 FILLER_0_3_305
*1491 FILLER_0_3_317
*1492 FILLER_0_3_329
*1493 FILLER_0_3_335
*1494 FILLER_0_3_337
*1495 FILLER_0_3_349
*1496 FILLER_0_3_39
*1497 FILLER_0_3_51
*1498 FILLER_0_3_55
*1499 FILLER_0_3_57
*1500 FILLER_0_3_69
*1501 FILLER_0_3_81
*1502 FILLER_0_3_93
*1503 FILLER_0_4_109
*1504 FILLER_0_4_121
*1505 FILLER_0_4_133
*1506 FILLER_0_4_139
*1507 FILLER_0_4_141
*1508 FILLER_0_4_15
*1509 FILLER_0_4_153
*1510 FILLER_0_4_165
*1511 FILLER_0_4_177
*1512 FILLER_0_4_189
*1513 FILLER_0_4_195
*1514 FILLER_0_4_197
*1515 FILLER_0_4_209
*1516 FILLER_0_4_221
*1517 FILLER_0_4_233
*1518 FILLER_0_4_245
*1519 FILLER_0_4_251
*1520 FILLER_0_4_253
*1521 FILLER_0_4_265
*1522 FILLER_0_4_27
*1523 FILLER_0_4_277
*1524 FILLER_0_4_289
*1525 FILLER_0_4_29
*1526 FILLER_0_4_3
*1527 FILLER_0_4_301
*1528 FILLER_0_4_307
*1529 FILLER_0_4_309
*1530 FILLER_0_4_321
*1531 FILLER_0_4_333
*1532 FILLER_0_4_345
*1533 FILLER_0_4_41
*1534 FILLER_0_4_53
*1535 FILLER_0_4_65
*1536 FILLER_0_4_77
*1537 FILLER_0_4_83
*1538 FILLER_0_4_85
*1539 FILLER_0_4_97
*1540 FILLER_0_5_105
*1541 FILLER_0_5_111
*1542 FILLER_0_5_113
*1543 FILLER_0_5_125
*1544 FILLER_0_5_137
*1545 FILLER_0_5_149
*1546 FILLER_0_5_15
*1547 FILLER_0_5_161
*1548 FILLER_0_5_167
*1549 FILLER_0_5_169
*1550 FILLER_0_5_181
*1551 FILLER_0_5_193
*1552 FILLER_0_5_205
*1553 FILLER_0_5_217
*1554 FILLER_0_5_223
*1555 FILLER_0_5_225
*1556 FILLER_0_5_237
*1557 FILLER_0_5_249
*1558 FILLER_0_5_261
*1559 FILLER_0_5_27
*1560 FILLER_0_5_273
*1561 FILLER_0_5_279
*1562 FILLER_0_5_281
*1563 FILLER_0_5_293
*1564 FILLER_0_5_3
*1565 FILLER_0_5_305
*1566 FILLER_0_5_317
*1567 FILLER_0_5_329
*1568 FILLER_0_5_335
*1569 FILLER_0_5_337
*1570 FILLER_0_5_349
*1571 FILLER_0_5_39
*1572 FILLER_0_5_51
*1573 FILLER_0_5_55
*1574 FILLER_0_5_57
*1575 FILLER_0_5_69
*1576 FILLER_0_5_81
*1577 FILLER_0_5_93
*1578 FILLER_0_6_109
*1579 FILLER_0_6_121
*1580 FILLER_0_6_133
*1581 FILLER_0_6_139
*1582 FILLER_0_6_141
*1583 FILLER_0_6_15
*1584 FILLER_0_6_153
*1585 FILLER_0_6_165
*1586 FILLER_0_6_177
*1587 FILLER_0_6_189
*1588 FILLER_0_6_195
*1589 FILLER_0_6_197
*1590 FILLER_0_6_209
*1591 FILLER_0_6_221
*1592 FILLER_0_6_233