*SPEF "ieee 1481-1999"
*DESIGN "tt_um_MultiPatternLEDSequencer_RSYO3000"
*DATE "11:11:11 Fri 11 11, 1111"
*VENDOR "OpenRCX"
*PROGRAM "Parallel Extraction"
*VERSION "1.0"
*DESIGN_FLOW "NAME_SCOPE LOCAL" "PIN_CAP NONE"
*DIVIDER /
*DELIMITER :
*BUS_DELIMITER []
*T_UNIT 1 NS
*C_UNIT 1 PF
*R_UNIT 1 OHM
*L_UNIT 1 HENRY

*NAME_MAP
*3 clk
*4 ena
*5 rst_n
*6 ui_in[0]
*7 ui_in[1]
*8 ui_in[2]
*9 ui_in[3]
*10 ui_in[4]
*11 ui_in[5]
*12 ui_in[6]
*13 ui_in[7]
*14 uio_in[0]
*15 uio_in[1]
*16 uio_in[2]
*17 uio_in[3]
*18 uio_in[4]
*19 uio_in[5]
*20 uio_in[6]
*21 uio_in[7]
*22 net20
*23 net21
*24 net22
*25 net23
*26 net24
*27 net25
*28 net26
*29 net27
*30 net28
*31 net29
*32 net30
*33 net31
*34 net32
*35 net33
*36 net34
*37 net35
*38 uo_out[0]
*39 uo_out[1]
*40 uo_out[2]
*41 uo_out[3]
*42 uo_out[4]
*43 uo_out[5]
*44 uo_out[6]
*45 uo_out[7]
*46 M0\.MPLS_INSTANCE\.clk_pll
*47 M0\.MPLS_INSTANCE\.demo_counter\[0\]
*48 M0\.MPLS_INSTANCE\.demo_counter\[1\]
*49 M0\.MPLS_INSTANCE\.demo_counter\[2\]
*50 M0\.MPLS_INSTANCE\.demo_counter\[3\]
*51 M0\.MPLS_INSTANCE\.demo_counter\[4\]
*52 M0\.MPLS_INSTANCE\.lfsr_reg\[0\]
*53 M0\.MPLS_INSTANCE\.lfsr_reg\[1\]
*54 M0\.MPLS_INSTANCE\.lfsr_reg\[2\]
*55 M0\.MPLS_INSTANCE\.lfsr_reg\[3\]
*56 M0\.MPLS_INSTANCE\.lfsr_reg\[4\]
*57 M0\.MPLS_INSTANCE\.lfsr_reg\[5\]
*58 M0\.MPLS_INSTANCE\.lfsr_reg\[6\]
*59 M0\.MPLS_INSTANCE\.lfsr_reg\[7\]
*60 M0\.MPLS_INSTANCE\.oh_counter\[0\]
*61 M0\.MPLS_INSTANCE\.oh_counter\[1\]
*62 M0\.MPLS_INSTANCE\.oh_counter\[2\]
*63 M0\.MPLS_INSTANCE\.oh_counter\[3\]
*64 M0\.MPLS_INSTANCE\.oh_counter\[4\]
*65 M0\.MPLS_INSTANCE\.oh_counter\[5\]
*66 M0\.MPLS_INSTANCE\.oh_counter\[6\]
*67 M0\.MPLS_INSTANCE\.oh_counter\[7\]
*68 M0\.MPLS_INSTANCE\.pattern_counter\[0\]
*69 M0\.MPLS_INSTANCE\.pattern_counter\[1\]
*70 M0\.MPLS_INSTANCE\.pattern_counter\[2\]
*71 M0\.MPLS_INSTANCE\.pattern_counter\[3\]
*72 M0\.MPLS_INSTANCE\.pattern_counter\[4\]
*73 M0\.MPLS_INSTANCE\.pattern_counter\[5\]
*74 M0\.MPLS_INSTANCE\.pattern_counter\[6\]
*75 M0\.MPLS_INSTANCE\.pattern_counter\[7\]
*76 M0\.MPLS_INSTANCE\.prev_pattern_sel\[0\]
*77 M0\.MPLS_INSTANCE\.prev_pattern_sel\[1\]
*78 M0\.MPLS_INSTANCE\.prev_pattern_sel\[2\]
*79 M0\.MPLS_INSTANCE\.prev_pattern_sel\[3\]
*80 M0\.MPLS_INSTANCE\.prev_pattern_sel\[4\]
*81 M0\.PLL_INSTANCE\.counter\[0\]
*82 M0\.PLL_INSTANCE\.counter\[10\]
*83 M0\.PLL_INSTANCE\.counter\[11\]
*84 M0\.PLL_INSTANCE\.counter\[12\]
*85 M0\.PLL_INSTANCE\.counter\[13\]
*86 M0\.PLL_INSTANCE\.counter\[14\]
*87 M0\.PLL_INSTANCE\.counter\[15\]
*88 M0\.PLL_INSTANCE\.counter\[16\]
*89 M0\.PLL_INSTANCE\.counter\[17\]
*90 M0\.PLL_INSTANCE\.counter\[18\]
*91 M0\.PLL_INSTANCE\.counter\[19\]
*92 M0\.PLL_INSTANCE\.counter\[1\]
*93 M0\.PLL_INSTANCE\.counter\[20\]
*94 M0\.PLL_INSTANCE\.counter\[21\]
*95 M0\.PLL_INSTANCE\.counter\[22\]
*96 M0\.PLL_INSTANCE\.counter\[23\]
*97 M0\.PLL_INSTANCE\.counter\[2\]
*98 M0\.PLL_INSTANCE\.counter\[3\]
*99 M0\.PLL_INSTANCE\.counter\[4\]
*100 M0\.PLL_INSTANCE\.counter\[5\]
*101 M0\.PLL_INSTANCE\.counter\[6\]
*102 M0\.PLL_INSTANCE\.counter\[7\]
*103 M0\.PLL_INSTANCE\.counter\[8\]
*104 M0\.PLL_INSTANCE\.counter\[9\]
*105 _0000_
*106 _0001_
*107 _0002_
*108 _0003_
*109 _0004_
*110 _0005_
*111 _0006_
*112 _0007_
*113 _0008_
*114 _0009_
*115 _0010_
*116 _0011_
*117 _0012_
*118 _0013_
*119 _0014_
*120 _0015_
*121 _0016_
*122 _0017_
*123 _0018_
*124 _0019_
*125 _0020_
*126 _0021_
*127 _0022_
*128 _0023_
*129 _0024_
*130 _0025_
*131 _0026_
*132 _0027_
*133 _0028_
*134 _0029_
*135 _0030_
*136 _0031_
*137 _0032_
*138 _0033_
*139 _0034_
*140 _0035_
*141 _0036_
*142 _0037_
*143 _0038_
*144 _0039_
*145 _0040_
*146 _0041_
*147 _0042_
*148 _0043_
*149 _0044_
*150 _0045_
*151 _0046_
*152 _0047_
*153 _0048_
*154 _0049_
*155 _0050_
*156 _0051_
*157 _0052_
*158 _0053_
*159 _0054_
*160 _0055_
*161 _0056_
*162 _0057_
*163 _0058_
*164 _0059_
*165 _0060_
*166 _0061_
*167 _0062_
*168 _0063_
*169 _0064_
*170 _0065_
*171 _0066_
*172 _0067_
*173 _0068_
*174 _0069_
*175 _0070_
*176 _0071_
*177 _0072_
*178 _0073_
*179 _0074_
*180 _0075_
*181 _0076_
*182 _0077_
*183 _0078_
*184 _0079_
*185 _0080_
*186 _0081_
*187 _0082_
*188 _0083_
*189 _0084_
*190 _0085_
*191 _0086_
*192 _0087_
*193 _0088_
*194 _0089_
*195 _0090_
*196 _0091_
*197 _0092_
*198 _0093_
*199 _0094_
*200 _0095_
*201 _0096_
*202 _0097_
*203 _0098_
*204 _0099_
*205 _0100_
*206 _0101_
*207 _0102_
*208 _0103_
*209 _0104_
*210 _0105_
*211 _0106_
*212 _0107_
*213 _0108_
*214 _0109_
*215 _0110_
*216 _0111_
*217 _0112_
*218 _0113_
*219 _0114_
*220 _0115_
*221 _0116_
*222 _0117_
*223 _0118_
*224 _0119_
*225 _0120_
*226 _0121_
*227 _0122_
*228 _0123_
*229 _0124_
*230 _0125_
*231 _0126_
*232 _0127_
*233 _0128_
*234 _0129_
*235 _0130_
*236 _0131_
*237 _0132_
*238 _0133_
*239 _0134_
*240 _0135_
*241 _0136_
*242 _0137_
*243 _0138_
*244 _0139_
*245 _0140_
*246 _0141_
*247 _0142_
*248 _0143_
*249 _0144_
*250 _0145_
*251 _0146_
*252 _0147_
*253 _0148_
*254 _0149_
*255 _0150_
*256 _0151_
*257 _0152_
*258 _0153_
*259 _0154_
*260 _0155_
*261 _0156_
*262 _0157_
*263 _0158_
*264 _0159_
*265 _0160_
*266 _0161_
*267 _0162_
*268 _0163_
*269 _0164_
*270 _0165_
*271 _0166_
*272 _0167_
*273 _0168_
*274 _0169_
*275 _0170_
*276 _0171_
*277 _0172_
*278 _0173_
*279 _0174_
*280 _0175_
*281 _0176_
*282 _0177_
*283 _0178_
*284 _0179_
*285 _0180_
*286 _0181_
*287 _0182_
*288 _0183_
*289 _0184_
*290 _0185_
*291 _0186_
*292 _0187_
*293 _0188_
*294 _0189_
*295 _0190_
*296 _0191_
*297 _0192_
*298 _0193_
*299 _0194_
*300 _0195_
*301 _0196_
*302 _0197_
*303 _0198_
*304 _0199_
*305 _0200_
*306 _0201_
*307 _0202_
*308 _0203_
*309 _0204_
*310 _0205_
*311 _0206_
*312 _0207_
*313 _0208_
*314 _0209_
*315 _0210_
*316 _0211_
*317 _0212_
*318 _0213_
*319 _0214_
*320 _0215_
*321 _0216_
*322 _0217_
*323 _0218_
*324 _0219_
*325 _0220_
*326 _0221_
*327 _0222_
*328 _0223_
*329 _0224_
*330 _0225_
*331 _0226_
*332 _0227_
*333 _0228_
*334 _0229_
*335 _0230_
*336 _0231_
*337 _0232_
*338 _0233_
*339 _0234_
*340 _0235_
*341 _0236_
*342 _0237_
*343 _0238_
*344 _0239_
*345 _0240_
*346 _0241_
*347 _0242_
*348 _0243_
*349 _0244_
*350 _0245_
*351 _0246_
*352 _0247_
*353 _0248_
*354 _0249_
*355 _0250_
*356 _0251_
*357 _0252_
*358 _0253_
*359 _0254_
*360 _0255_
*361 _0256_
*362 _0257_
*363 _0258_
*364 _0259_
*365 _0260_
*366 _0261_
*367 _0262_
*368 _0263_
*369 _0264_
*370 _0265_
*371 _0266_
*372 _0267_
*373 _0268_
*374 _0269_
*375 _0270_
*376 _0271_
*377 _0272_
*378 _0273_
*379 _0274_
*380 _0275_
*381 _0276_
*382 _0277_
*383 _0278_
*384 _0279_
*385 _0280_
*386 _0281_
*387 _0282_
*388 _0283_
*389 _0284_
*390 _0285_
*391 _0286_
*392 _0287_
*393 _0288_
*394 _0289_
*395 _0290_
*396 _0291_
*397 _0292_
*398 _0293_
*399 _0294_
*400 _0295_
*401 _0296_
*402 _0297_
*403 _0298_
*404 _0299_
*405 _0300_
*406 _0301_
*407 _0302_
*408 _0303_
*409 _0304_
*410 _0305_
*411 _0306_
*412 _0307_
*413 _0308_
*414 _0309_
*415 _0310_
*416 _0311_
*417 _0312_
*418 _0313_
*419 _0314_
*420 _0315_
*421 _0316_
*422 _0317_
*423 _0318_
*424 _0319_
*425 _0320_
*426 _0321_
*427 _0322_
*428 _0323_
*429 _0324_
*430 _0325_
*431 _0326_
*432 _0327_
*433 _0328_
*434 _0329_
*435 _0330_
*436 _0331_
*437 _0332_
*438 _0333_
*439 _0334_
*440 _0335_
*441 _0336_
*442 _0337_
*443 _0338_
*444 _0339_
*445 _0340_
*446 _0341_
*447 _0342_
*448 _0343_
*449 _0344_
*450 _0345_
*451 _0346_
*452 _0347_
*453 _0348_
*454 _0349_
*455 _0350_
*456 _0351_
*457 _0352_
*458 _0353_
*459 _0354_
*460 _0355_
*461 _0356_
*462 _0357_
*463 _0358_
*464 _0359_
*465 _0360_
*466 _0361_
*467 _0362_
*468 _0363_
*469 _0364_
*470 _0365_
*471 _0366_
*472 _0367_
*473 _0368_
*474 _0369_
*475 _0370_
*476 _0371_
*477 _0372_
*478 _0373_
*479 _0374_
*480 _0375_
*481 _0376_
*482 _0377_
*483 _0378_
*484 _0379_
*485 _0380_
*486 _0381_
*487 _0382_
*488 _0383_
*489 _0384_
*490 _0385_
*491 _0386_
*492 _0387_
*493 _0388_
*494 _0389_
*495 _0390_
*496 _0391_
*497 _0392_
*498 _0393_
*499 _0394_
*500 _0395_
*501 _0396_
*502 _0397_
*503 _0398_
*504 _0399_
*505 _0400_
*506 _0401_
*507 _0402_
*508 _0403_
*509 _0404_
*510 _0405_
*511 _0406_
*512 _0407_
*513 _0408_
*514 _0409_
*515 _0410_
*516 _0411_
*517 _0412_
*518 _0413_
*519 _0414_
*520 _0415_
*521 _0416_
*522 _0417_
*523 _0418_
*524 _0419_
*525 _0420_
*526 _0421_
*527 _0422_
*528 _0423_
*529 _0424_
*530 _0425_
*531 _0426_
*532 _0427_
*533 _0428_
*534 _0429_
*535 _0430_
*536 _0431_
*537 _0432_
*538 _0433_
*539 _0434_
*540 _0435_
*541 _0436_
*542 _0437_
*543 _0438_
*544 _0439_
*545 _0440_
*546 _0441_
*547 _0442_
*548 _0443_
*549 _0444_
*550 _0445_
*551 _0446_
*552 _0447_
*553 _0448_
*554 _0449_
*555 _0450_
*556 _0451_
*557 _0452_
*558 _0453_
*559 _0454_
*560 _0455_
*561 _0456_
*562 _0457_
*563 _0458_
*564 _0459_
*565 _0460_
*566 _0461_
*567 _0462_
*568 _0463_
*569 _0464_
*570 _0465_
*571 _0466_
*572 _0467_
*573 _0468_
*574 _0469_
*575 _0470_
*576 clknet_0_clk
*577 clknet_1_0__leaf_clk
*578 clknet_1_1__leaf_clk
*579 net1
*580 net10
*581 net11
*582 net12
*583 net13
*584 net14
*585 net15
*586 net16
*587 net17
*588 net18
*589 net19
*590 net2
*591 net3
*592 net36
*593 net37
*594 net38
*595 net39
*596 net4
*597 net40
*598 net41
*599 net42
*600 net43
*601 net44
*602 net45
*603 net46
*604 net47
*605 net48
*606 net49
*607 net5
*608 net6
*609 net7
*610 net8
*611 net9
*612 FILLER_0_0_109
*613 FILLER_0_0_113
*614 FILLER_0_0_125
*615 FILLER_0_0_137
*616 FILLER_0_0_141
*617 FILLER_0_0_15
*618 FILLER_0_0_153
*619 FILLER_0_0_165
*620 FILLER_0_0_169
*621 FILLER_0_0_181
*622 FILLER_0_0_193
*623 FILLER_0_0_197
*624 FILLER_0_0_209
*625 FILLER_0_0_221
*626 FILLER_0_0_225
*627 FILLER_0_0_237
*628 FILLER_0_0_249
*629 FILLER_0_0_253
*630 FILLER_0_0_265
*631 FILLER_0_0_27
*632 FILLER_0_0_277
*633 FILLER_0_0_281
*634 FILLER_0_0_29
*635 FILLER_0_0_293
*636 FILLER_0_0_3
*637 FILLER_0_0_305
*638 FILLER_0_0_309
*639 FILLER_0_0_321
*640 FILLER_0_0_333
*641 FILLER_0_0_337
*642 FILLER_0_0_349
*643 FILLER_0_0_41
*644 FILLER_0_0_53
*645 FILLER_0_0_57
*646 FILLER_0_0_69
*647 FILLER_0_0_81
*648 FILLER_0_0_85
*649 FILLER_0_0_97
*650 FILLER_0_10_109
*651 FILLER_0_10_121
*652 FILLER_0_10_133
*653 FILLER_0_10_139
*654 FILLER_0_10_141
*655 FILLER_0_10_15
*656 FILLER_0_10_153
*657 FILLER_0_10_165
*658 FILLER_0_10_177
*659 FILLER_0_10_189
*660 FILLER_0_10_195
*661 FILLER_0_10_197
*662 FILLER_0_10_209
*663 FILLER_0_10_221
*664 FILLER_0_10_233
*665 FILLER_0_10_245
*666 FILLER_0_10_251
*667 FILLER_0_10_253
*668 FILLER_0_10_265
*669 FILLER_0_10_27
*670 FILLER_0_10_277
*671 FILLER_0_10_289
*672 FILLER_0_10_29
*673 FILLER_0_10_3
*674 FILLER_0_10_301
*675 FILLER_0_10_307
*676 FILLER_0_10_309
*677 FILLER_0_10_321
*678 FILLER_0_10_333
*679 FILLER_0_10_345
*680 FILLER_0_10_41
*681 FILLER_0_10_53
*682 FILLER_0_10_65
*683 FILLER_0_10_77
*684 FILLER_0_10_83
*685 FILLER_0_10_85
*686 FILLER_0_10_97
*687 FILLER_0_11_105
*688 FILLER_0_11_111
*689 FILLER_0_11_113
*690 FILLER_0_11_125
*691 FILLER_0_11_137
*692 FILLER_0_11_149
*693 FILLER_0_11_15
*694 FILLER_0_11_161
*695 FILLER_0_11_167
*696 FILLER_0_11_169
*697 FILLER_0_11_181
*698 FILLER_0_11_193
*699 FILLER_0_11_205
*700 FILLER_0_11_217
*701 FILLER_0_11_223
*702 FILLER_0_11_225
*703 FILLER_0_11_237
*704 FILLER_0_11_249
*705 FILLER_0_11_261
*706 FILLER_0_11_267
*707 FILLER_0_11_27
*708 FILLER_0_11_271
*709 FILLER_0_11_279
*710 FILLER_0_11_281
*711 FILLER_0_11_293
*712 FILLER_0_11_3
*713 FILLER_0_11_305
*714 FILLER_0_11_317
*715 FILLER_0_11_329
*716 FILLER_0_11_335
*717 FILLER_0_11_337
*718 FILLER_0_11_349
*719 FILLER_0_11_39
*720 FILLER_0_11_51
*721 FILLER_0_11_55
*722 FILLER_0_11_57
*723 FILLER_0_11_69
*724 FILLER_0_11_81
*725 FILLER_0_11_93
*726 FILLER_0_12_109
*727 FILLER_0_12_121
*728 FILLER_0_12_133
*729 FILLER_0_12_139
*730 FILLER_0_12_141
*731 FILLER_0_12_15
*732 FILLER_0_12_153
*733 FILLER_0_12_165
*734 FILLER_0_12_177
*735 FILLER_0_12_189
*736 FILLER_0_12_195
*737 FILLER_0_12_197
*738 FILLER_0_12_209
*739 FILLER_0_12_221
*740 FILLER_0_12_233
*741 FILLER_0_12_245
*742 FILLER_0_12_251
*743 FILLER_0_12_253
*744 FILLER_0_12_27
*745 FILLER_0_12_279
*746 FILLER_0_12_29
*747 FILLER_0_12_291
*748 FILLER_0_12_3
*749 FILLER_0_12_303
*750 FILLER_0_12_307
*751 FILLER_0_12_309
*752 FILLER_0_12_321
*753 FILLER_0_12_333
*754 FILLER_0_12_345
*755 FILLER_0_12_41
*756 FILLER_0_12_53
*757 FILLER_0_12_65
*758 FILLER_0_12_77
*759 FILLER_0_12_83
*760 FILLER_0_12_85
*761 FILLER_0_12_97
*762 FILLER_0_13_105
*763 FILLER_0_13_111
*764 FILLER_0_13_113
*765 FILLER_0_13_125
*766 FILLER_0_13_137
*767 FILLER_0_13_149
*768 FILLER_0_13_15
*769 FILLER_0_13_161
*770 FILLER_0_13_167
*771 FILLER_0_13_169
*772 FILLER_0_13_181
*773 FILLER_0_13_193
*774 FILLER_0_13_205
*775 FILLER_0_13_217
*776 FILLER_0_13_223
*777 FILLER_0_13_225
*778 FILLER_0_13_237
*779 FILLER_0_13_249
*780 FILLER_0_13_253
*781 FILLER_0_13_27
*782 FILLER_0_13_279
*783 FILLER_0_13_281
*784 FILLER_0_13_293
*785 FILLER_0_13_3
*786 FILLER_0_13_305
*787 FILLER_0_13_317
*788 FILLER_0_13_329
*789 FILLER_0_13_335
*790 FILLER_0_13_337
*791 FILLER_0_13_349
*792 FILLER_0_13_39
*793 FILLER_0_13_51
*794 FILLER_0_13_55
*795 FILLER_0_13_57
*796 FILLER_0_13_69
*797 FILLER_0_13_81
*798 FILLER_0_13_93
*799 FILLER_0_14_109
*800 FILLER_0_14_121
*801 FILLER_0_14_133
*802 FILLER_0_14_139
*803 FILLER_0_14_141
*804 FILLER_0_14_15
*805 FILLER_0_14_153
*806 FILLER_0_14_165
*807 FILLER_0_14_177
*808 FILLER_0_14_189
*809 FILLER_0_14_195
*810 FILLER_0_14_197
*811 FILLER_0_14_209
*812 FILLER_0_14_221
*813 FILLER_0_14_233
*814 FILLER_0_14_245
*815 FILLER_0_14_27
*816 FILLER_0_14_276
*817 FILLER_0_14_280
*818 FILLER_0_14_29
*819 FILLER_0_14_294
*820 FILLER_0_14_3
*821 FILLER_0_14_306
*822 FILLER_0_14_329
*823 FILLER_0_14_341
*824 FILLER_0_14_349
*825 FILLER_0_14_41
*826 FILLER_0_14_53
*827 FILLER_0_14_65
*828 FILLER_0_14_77
*829 FILLER_0_14_83
*830 FILLER_0_14_85
*831 FILLER_0_14_97
*832 FILLER_0_15_105
*833 FILLER_0_15_111
*834 FILLER_0_15_113
*835 FILLER_0_15_125
*836 FILLER_0_15_137
*837 FILLER_0_15_149
*838 FILLER_0_15_15
*839 FILLER_0_15_161
*840 FILLER_0_15_167
*841 FILLER_0_15_169
*842 FILLER_0_15_181
*843 FILLER_0_15_193
*844 FILLER_0_15_205
*845 FILLER_0_15_217
*846 FILLER_0_15_223
*847 FILLER_0_15_225
*848 FILLER_0_15_237
*849 FILLER_0_15_249
*850 FILLER_0_15_27
*851 FILLER_0_15_278
*852 FILLER_0_15_296
*853 FILLER_0_15_3
*854 FILLER_0_15_341
*855 FILLER_0_15_349
*856 FILLER_0_15_39
*857 FILLER_0_15_51
*858 FILLER_0_15_55
*859 FILLER_0_15_57
*860 FILLER_0_15_69
*861 FILLER_0_15_81
*862 FILLER_0_15_93
*863 FILLER_0_16_105
*864 FILLER_0_16_117
*865 FILLER_0_16_129
*866 FILLER_0_16_137
*867 FILLER_0_16_141
*868 FILLER_0_16_15
*869 FILLER_0_16_153
*870 FILLER_0_16_165
*871 FILLER_0_16_177
*872 FILLER_0_16_189
*873 FILLER_0_16_195
*874 FILLER_0_16_197
*875 FILLER_0_16_209
*876 FILLER_0_16_221
*877 FILLER_0_16_233
*878 FILLER_0_16_253
*879 FILLER_0_16_261
*880 FILLER_0_16_27
*881 FILLER_0_16_284
*882 FILLER_0_16_29
*883 FILLER_0_16_296
*884 FILLER_0_16_3
*885 FILLER_0_16_316
*886 FILLER_0_16_322
*887 FILLER_0_16_345
*888 FILLER_0_16_41
*889 FILLER_0_16_67
*890 FILLER_0_16_82
*891 FILLER_0_16_85
*892 FILLER_0_16_97
*893 FILLER_0_17_108
*894 FILLER_0_17_11
*895 FILLER_0_17_134
*896 FILLER_0_17_146
*897 FILLER_0_17_158
*898 FILLER_0_17_166
*899 FILLER_0_17_169
*900 FILLER_0_17_181
*901 FILLER_0_17_193
*902 FILLER_0_17_205
*903 FILLER_0_17_217
*904 FILLER_0_17_223
*905 FILLER_0_17_225
*906 FILLER_0_17_237
*907 FILLER_0_17_245
*908 FILLER_0_17_267
*909 FILLER_0_17_279
*910 FILLER_0_17_281
*911 FILLER_0_17_285
*912 FILLER_0_17_290
*913 FILLER_0_17_298
*914 FILLER_0_17_3
*915 FILLER_0_17_304
*916 FILLER_0_17_313
*917 FILLER_0_17_35
*918 FILLER_0_17_47
*919 FILLER_0_17_55
*920 FILLER_0_17_57
*921 FILLER_0_18_101
*922 FILLER_0_18_109
*923 FILLER_0_18_138
*924 FILLER_0_18_141
*925 FILLER_0_18_15
*926 FILLER_0_18_181
*927 FILLER_0_18_185
*928 FILLER_0_18_194
*929 FILLER_0_18_22
*930 FILLER_0_18_220
*931 FILLER_0_18_232
*932 FILLER_0_18_244
*933 FILLER_0_18_273
*934 FILLER_0_18_29
*935 FILLER_0_18_297
*936 FILLER_0_18_3
*937 FILLER_0_18_305
*938 FILLER_0_18_309
*939 FILLER_0_18_317
*940 FILLER_0_18_346
*941 FILLER_0_18_350
*942 FILLER_0_18_37
*943 FILLER_0_18_48
*944 FILLER_0_18_56
*945 FILLER_0_18_79
*946 FILLER_0_18_83
*947 FILLER_0_19_104
*948 FILLER_0_19_113
*949 FILLER_0_19_150
*950 FILLER_0_19_158
*951 FILLER_0_19_166
*952 FILLER_0_19_172
*953 FILLER_0_19_180
*954 FILLER_0_19_216
*955 FILLER_0_19_246
*956 FILLER_0_19_258
*957 FILLER_0_19_272
*958 FILLER_0_19_279
*959 FILLER_0_19_28
*960 FILLER_0_19_3
*961 FILLER_0_19_311
*962 FILLER_0_19_319
*963 FILLER_0_19_323
*964 FILLER_0_19_328
*965 FILLER_0_19_337
*966 FILLER_0_19_349
*967 FILLER_0_19_44
*968 FILLER_0_19_57
*969 FILLER_0_19_69
*970 FILLER_0_19_82
*971 FILLER_0_19_92
*972 FILLER_0_1_105
*973 FILLER_0_1_111
*974 FILLER_0_1_113
*975 FILLER_0_1_125
*976 FILLER_0_1_137
*977 FILLER_0_1_149
*978 FILLER_0_1_15
*979 FILLER_0_1_161
*980 FILLER_0_1_167
*981 FILLER_0_1_169
*982 FILLER_0_1_181
*983 FILLER_0_1_193
*984 FILLER_0_1_205
*985 FILLER_0_1_217
*986 FILLER_0_1_223
*987 FILLER_0_1_225
*988 FILLER_0_1_237
*989 FILLER_0_1_249
*990 FILLER_0_1_261
*991 FILLER_0_1_27
*992 FILLER_0_1_273
*993 FILLER_0_1_279
*994 FILLER_0_1_281
*995 FILLER_0_1_293
*996 FILLER_0_1_3
*997 FILLER_0_1_305
*998 FILLER_0_1_317
*999 FILLER_0_1_329
*1000 FILLER_0_1_335
*1001 FILLER_0_1_337
*1002 FILLER_0_1_349
*1003 FILLER_0_1_39
*1004 FILLER_0_1_51
*1005 FILLER_0_1_55
*1006 FILLER_0_1_57
*1007 FILLER_0_1_69
*1008 FILLER_0_1_81
*1009 FILLER_0_1_93
*1010 FILLER_0_20_105
*1011 FILLER_0_20_116
*1012 FILLER_0_20_128
*1013 FILLER_0_20_141
*1014 FILLER_0_20_15
*1015 FILLER_0_20_170
*1016 FILLER_0_20_180
*1017 FILLER_0_20_188
*1018 FILLER_0_20_200
*1019 FILLER_0_20_225
*1020 FILLER_0_20_237
*1021 FILLER_0_20_245
*1022 FILLER_0_20_251
*1023 FILLER_0_20_3
*1024 FILLER_0_20_307
*1025 FILLER_0_20_309
*1026 FILLER_0_20_326
*1027 FILLER_0_20_348
*1028 FILLER_0_20_49
*1029 FILLER_0_20_61
*1030 FILLER_0_20_66
*1031 FILLER_0_20_74
*1032 FILLER_0_20_82
*1033 FILLER_0_21_11
*1034 FILLER_0_21_110
*1035 FILLER_0_21_113
*1036 FILLER_0_21_125
*1037 FILLER_0_21_129
*1038 FILLER_0_21_160
*1039 FILLER_0_21_169
*1040 FILLER_0_21_181
*1041 FILLER_0_21_189
*1042 FILLER_0_21_199
*1043 FILLER_0_21_214
*1044 FILLER_0_21_222
*1045 FILLER_0_21_225
*1046 FILLER_0_21_237
*1047 FILLER_0_21_249
*1048 FILLER_0_21_270
*1049 FILLER_0_21_281
*1050 FILLER_0_21_288
*1051 FILLER_0_21_296
*1052 FILLER_0_21_3
*1053 FILLER_0_21_303
*1054 FILLER_0_21_341
*1055 FILLER_0_21_349
*1056 FILLER_0_21_38
*1057 FILLER_0_21_84
*1058 FILLER_0_22_105
*1059 FILLER_0_22_115
*1060 FILLER_0_22_147
*1061 FILLER_0_22_165
*1062 FILLER_0_22_177
*1063 FILLER_0_22_190
*1064 FILLER_0_22_197
*1065 FILLER_0_22_209
*1066 FILLER_0_22_238
*1067 FILLER_0_22_250
*1068 FILLER_0_22_256
*1069 FILLER_0_22_264
*1070 FILLER_0_22_284
*1071 FILLER_0_22_3
*1072 FILLER_0_22_309
*1073 FILLER_0_22_340
*1074 FILLER_0_22_348
*1075 FILLER_0_22_40
*1076 FILLER_0_22_52
*1077 FILLER_0_22_7
*1078 FILLER_0_22_78
*1079 FILLER_0_22_85
*1080 FILLER_0_22_94
*1081 FILLER_0_23_106
*1082 FILLER_0_23_11
*1083 FILLER_0_23_113
*1084 FILLER_0_23_125
*1085 FILLER_0_23_132
*1086 FILLER_0_23_140
*1087 FILLER_0_23_146
*1088 FILLER_0_23_150
*1089 FILLER_0_23_158
*1090 FILLER_0_23_166
*1091 FILLER_0_23_169
*1092 FILLER_0_23_181
*1093 FILLER_0_23_199
*1094 FILLER_0_23_211
*1095 FILLER_0_23_223
*1096 FILLER_0_23_243
*1097 FILLER_0_23_255
*1098 FILLER_0_23_259
*1099 FILLER_0_23_3
*1100 FILLER_0_23_328
*1101 FILLER_0_23_337
*1102 FILLER_0_23_349
*1103 FILLER_0_23_41
*1104 FILLER_0_23_53
*1105 FILLER_0_23_57
*1106 FILLER_0_23_70
*1107 FILLER_0_23_82
*1108 FILLER_0_23_94
*1109 FILLER_0_24_11
*1110 FILLER_0_24_110
*1111 FILLER_0_24_118
*1112 FILLER_0_24_144
*1113 FILLER_0_24_156
*1114 FILLER_0_24_164
*1115 FILLER_0_24_179
*1116 FILLER_0_24_203
*1117 FILLER_0_24_215
*1118 FILLER_0_24_219
*1119 FILLER_0_24_244
*1120 FILLER_0_24_253
*1121 FILLER_0_24_27
*1122 FILLER_0_24_276
*1123 FILLER_0_24_29
*1124 FILLER_0_24_296
*1125 FILLER_0_24_3
*1126 FILLER_0_24_313
*1127 FILLER_0_24_325
*1128 FILLER_0_24_348
*1129 FILLER_0_24_41
*1130 FILLER_0_24_53
*1131 FILLER_0_24_63
*1132 FILLER_0_24_72
*1133 FILLER_0_24_85
*1134 FILLER_0_24_98
*1135 FILLER_0_25_110
*1136 FILLER_0_25_120
*1137 FILLER_0_25_132
*1138 FILLER_0_25_144
*1139 FILLER_0_25_151
*1140 FILLER_0_25_163
*1141 FILLER_0_25_167
*1142 FILLER_0_25_169
*1143 FILLER_0_25_177
*1144 FILLER_0_25_189
*1145 FILLER_0_25_198
*1146 FILLER_0_25_207
*1147 FILLER_0_25_214
*1148 FILLER_0_25_222
*1149 FILLER_0_25_232
*1150 FILLER_0_25_241
*1151 FILLER_0_25_253
*1152 FILLER_0_25_266
*1153 FILLER_0_25_278
*1154 FILLER_0_25_286
*1155 FILLER_0_25_294
*1156 FILLER_0_25_3
*1157 FILLER_0_25_301
*1158 FILLER_0_25_308
*1159 FILLER_0_25_317
*1160 FILLER_0_25_333
*1161 FILLER_0_25_345
*1162 FILLER_0_25_48
*1163 FILLER_0_25_57
*1164 FILLER_0_25_65
*1165 FILLER_0_25_7
*1166 FILLER_0_25_81
*1167 FILLER_0_25_93
*1168 FILLER_0_26_103
*1169 FILLER_0_26_110
*1170 FILLER_0_26_125
*1171 FILLER_0_26_137
*1172 FILLER_0_26_141
*1173 FILLER_0_26_150
*1174 FILLER_0_26_163
*1175 FILLER_0_26_169
*1176 FILLER_0_26_195
*1177 FILLER_0_26_200
*1178 FILLER_0_26_215
*1179 FILLER_0_26_227
*1180 FILLER_0_26_248
*1181 FILLER_0_26_253
*1182 FILLER_0_26_3
*1183 FILLER_0_26_309
*1184 FILLER_0_26_342
*1185 FILLER_0_26_350
*1186 FILLER_0_26_46
*1187 FILLER_0_26_7
*1188 FILLER_0_26_82
*1189 FILLER_0_26_92
*1190 FILLER_0_26_96
*1191 FILLER_0_27_11
*1192 FILLER_0_27_131
*1193 FILLER_0_27_17
*1194 FILLER_0_27_175
*1195 FILLER_0_27_185
*1196 FILLER_0_27_197
*1197 FILLER_0_27_209
*1198 FILLER_0_27_221
*1199 FILLER_0_27_225
*1200 FILLER_0_27_250
*1201 FILLER_0_27_262
*1202 FILLER_0_27_274
*1203 FILLER_0_27_284
*1204 FILLER_0_27_29
*1205 FILLER_0_27_294
*1206 FILLER_0_27_3
*1207 FILLER_0_27_302
*1208 FILLER_0_27_334
*1209 FILLER_0_27_337
*1210 FILLER_0_27_349
*1211 FILLER_0_27_39
*1212 FILLER_0_27_51
*1213 FILLER_0_27_55
*1214 FILLER_0_27_57
*1215 FILLER_0_27_63
*1216 FILLER_0_27_93
*1217 FILLER_0_28_109
*1218 FILLER_0_28_126
*1219 FILLER_0_28_138
*1220 FILLER_0_28_15
*1221 FILLER_0_28_152
*1222 FILLER_0_28_164
*1223 FILLER_0_28_176
*1224 FILLER_0_28_192
*1225 FILLER_0_28_215
*1226 FILLER_0_28_221
*1227 FILLER_0_28_23
*1228 FILLER_0_28_231
*1229 FILLER_0_28_246
*1230 FILLER_0_28_253
*1231 FILLER_0_28_265
*1232 FILLER_0_28_27
*1233 FILLER_0_28_277
*1234 FILLER_0_28_283
*1235 FILLER_0_28_287
*1236 FILLER_0_28_29
*1237 FILLER_0_28_295
*1238 FILLER_0_28_3
*1239 FILLER_0_28_307
*1240 FILLER_0_28_309
*1241 FILLER_0_28_322
*1242 FILLER_0_28_338
*1243 FILLER_0_28_342
*1244 FILLER_0_28_346
*1245 FILLER_0_28_350
*1246 FILLER_0_28_41
*1247 FILLER_0_28_53
*1248 FILLER_0_28_71
*1249 FILLER_0_28_75
*1250 FILLER_0_28_83
*1251 FILLER_0_28_85
*1252 FILLER_0_28_97
*1253 FILLER_0_29_101
*1254 FILLER_0_29_108
*1255 FILLER_0_29_113
*1256 FILLER_0_29_129
*1257 FILLER_0_29_141
*1258 FILLER_0_29_166
*1259 FILLER_0_29_169
*1260 FILLER_0_29_175
*1261 FILLER_0_29_192
*1262 FILLER_0_29_211
*1263 FILLER_0_29_223
*1264 FILLER_0_29_225
*1265 FILLER_0_29_23
*1266 FILLER_0_29_244
*1267 FILLER_0_29_248
*1268 FILLER_0_29_252
*1269 FILLER_0_29_260
*1270 FILLER_0_29_272
*1271 FILLER_0_29_3
*1272 FILLER_0_29_301
*1273 FILLER_0_29_31
*1274 FILLER_0_29_313
*1275 FILLER_0_29_325
*1276 FILLER_0_29_350
*1277 FILLER_0_29_40
*1278 FILLER_0_29_46
*1279 FILLER_0_29_57
*1280 FILLER_0_29_69
*1281 FILLER_0_29_73
*1282 FILLER_0_29_93
*1283 FILLER_0_2_109
*1284 FILLER_0_2_121
*1285 FILLER_0_2_133
*1286 FILLER_0_2_139
*1287 FILLER_0_2_141
*1288 FILLER_0_2_15
*1289 FILLER_0_2_153
*1290 FILLER_0_2_165
*1291 FILLER_0_2_177
*1292 FILLER_0_2_189
*1293 FILLER_0_2_195
*1294 FILLER_0_2_197
*1295 FILLER_0_2_209
*1296 FILLER_0_2_221
*1297 FILLER_0_2_233
*1298 FILLER_0_2_245
*1299 FILLER_0_2_251
*1300 FILLER_0_2_253
*1301 FILLER_0_2_265
*1302 FILLER_0_2_27
*1303 FILLER_0_2_277
*1304 FILLER_0_2_289
*1305 FILLER_0_2_29
*1306 FILLER_0_2_3
*1307 FILLER_0_2_301
*1308 FILLER_0_2_307
*1309 FILLER_0_2_309
*1310 FILLER_0_2_321
*1311 FILLER_0_2_333
*1312 FILLER_0_2_345
*1313 FILLER_0_2_41
*1314 FILLER_0_2_53
*1315 FILLER_0_2_65
*1316 FILLER_0_2_77
*1317 FILLER_0_2_83
*1318 FILLER_0_2_85
*1319 FILLER_0_2_97
*1320 FILLER_0_30_11
*1321 FILLER_0_30_127
*1322 FILLER_0_30_133
*1323 FILLER_0_30_148
*1324 FILLER_0_30_160
*1325 FILLER_0_30_172
*1326 FILLER_0_30_186
*1327 FILLER_0_30_212
*1328 FILLER_0_30_218
*1329 FILLER_0_30_240
*1330 FILLER_0_30_247
*1331 FILLER_0_30_251
*1332 FILLER_0_30_253
*1333 FILLER_0_30_26
*1334 FILLER_0_30_261
*1335 FILLER_0_30_273
*1336 FILLER_0_30_281
*1337 FILLER_0_30_286
*1338 FILLER_0_30_298
*1339 FILLER_0_30_3
*1340 FILLER_0_30_306
*1341 FILLER_0_30_309
*1342 FILLER_0_30_317
*1343 FILLER_0_30_50
*1344 FILLER_0_30_58
*1345 FILLER_0_30_83
*1346 FILLER_0_30_99
*1347 FILLER_0_31_107
*1348 FILLER_0_31_111
*1349 FILLER_0_31_126
*1350 FILLER_0_31_132
*1351 FILLER_0_31_15
*1352 FILLER_0_31_150
*1353 FILLER_0_31_167
*1354 FILLER_0_31_169
*1355 FILLER_0_31_181
*1356 FILLER_0_31_207
*1357 FILLER_0_31_21
*1358 FILLER_0_31_215
*1359 FILLER_0_31_240
*1360 FILLER_0_31_252
*1361 FILLER_0_31_26
*1362 FILLER_0_31_264
*1363 FILLER_0_31_276
*1364 FILLER_0_31_3
*1365 FILLER_0_31_302
*1366 FILLER_0_31_314
*1367 FILLER_0_31_337
*1368 FILLER_0_31_350
*1369 FILLER_0_31_43
*1370 FILLER_0_31_55
*1371 FILLER_0_31_57
*1372 FILLER_0_31_74
*1373 FILLER_0_31_86
*1374 FILLER_0_31_98
*1375 FILLER_0_32_118
*1376 FILLER_0_32_130
*1377 FILLER_0_32_138
*1378 FILLER_0_32_141
*1379 FILLER_0_32_15
*1380 FILLER_0_32_150
*1381 FILLER_0_32_166
*1382 FILLER_0_32_178
*1383 FILLER_0_32_190
*1384 FILLER_0_32_205
*1385 FILLER_0_32_217
*1386 FILLER_0_32_221
*1387 FILLER_0_32_227
*1388 FILLER_0_32_250
*1389 FILLER_0_32_253
*1390 FILLER_0_32_265
*1391 FILLER_0_32_27
*1392 FILLER_0_32_273
*1393 FILLER_0_32_29
*1394 FILLER_0_32_3
*1395 FILLER_0_32_307
*1396 FILLER_0_32_332
*1397 FILLER_0_32_336
*1398 FILLER_0_32_343
*1399 FILLER_0_32_41
*1400 FILLER_0_32_53
*1401 FILLER_0_32_65
*1402 FILLER_0_32_79
*1403 FILLER_0_32_83
*1404 FILLER_0_32_85
*1405 FILLER_0_32_93
*1406 FILLER_0_33_102
*1407 FILLER_0_33_109
*1408 FILLER_0_33_126
*1409 FILLER_0_33_134
*1410 FILLER_0_33_15
*1411 FILLER_0_33_167
*1412 FILLER_0_33_169
*1413 FILLER_0_33_181
*1414 FILLER_0_33_185
*1415 FILLER_0_33_202
*1416 FILLER_0_33_212
*1417 FILLER_0_33_219
*1418 FILLER_0_33_223
*1419 FILLER_0_33_225
*1420 FILLER_0_33_229
*1421 FILLER_0_33_24
*1422 FILLER_0_33_249
*1423 FILLER_0_33_261
*1424 FILLER_0_33_269
*1425 FILLER_0_33_3
*1426 FILLER_0_33_306
*1427 FILLER_0_33_318
*1428 FILLER_0_33_330
*1429 FILLER_0_33_337
*1430 FILLER_0_33_349
*1431 FILLER_0_33_39
*1432 FILLER_0_33_47
*1433 FILLER_0_33_55
*1434 FILLER_0_33_57
*1435 FILLER_0_33_61
*1436 FILLER_0_33_82
*1437 FILLER_0_33_94
*1438 FILLER_0_34_11
*1439 FILLER_0_34_127
*1440 FILLER_0_34_133
*1441 FILLER_0_34_170
*1442 FILLER_0_34_182
*1443 FILLER_0_34_192
*1444 FILLER_0_34_208
*1445 FILLER_0_34_224
*1446 FILLER_0_34_253
*1447 FILLER_0_34_26
*1448 FILLER_0_34_265
*1449 FILLER_0_34_3
*1450 FILLER_0_34_309
*1451 FILLER_0_34_317
*1452 FILLER_0_34_323
*1453 FILLER_0_34_343
*1454 FILLER_0_34_43
*1455 FILLER_0_34_55
*1456 FILLER_0_34_91
*1457 FILLER_0_35_100
*1458 FILLER_0_35_121
*1459 FILLER_0_35_133
*1460 FILLER_0_35_15
*1461 FILLER_0_35_157
*1462 FILLER_0_35_166
*1463 FILLER_0_35_176
*1464 FILLER_0_35_184
*1465 FILLER_0_35_202
*1466 FILLER_0_35_214
*1467 FILLER_0_35_222
*1468 FILLER_0_35_225
*1469 FILLER_0_35_244
*1470 FILLER_0_35_256
*1471 FILLER_0_35_266
*1472 FILLER_0_35_27
*1473 FILLER_0_35_274
*1474 FILLER_0_35_3
*1475 FILLER_0_35_302
*1476 FILLER_0_35_310
*1477 FILLER_0_35_348
*1478 FILLER_0_35_43
*1479 FILLER_0_35_55
*1480 FILLER_0_35_65
*1481 FILLER_0_35_88
*1482 FILLER_0_36_11
*1483 FILLER_0_36_131
*1484 FILLER_0_36_148
*1485 FILLER_0_36_155
*1486 FILLER_0_36_178
*1487 FILLER_0_36_186
*1488 FILLER_0_36_192
*1489 FILLER_0_36_200
*1490 FILLER_0_36_204
*1491 FILLER_0_36_227
*1492 FILLER_0_36_231
*1493 FILLER_0_36_236
*1494 FILLER_0_36_248
*1495 FILLER_0_36_253
*1496 FILLER_0_36_26
*1497 FILLER_0_36_276
*1498 FILLER_0_36_284
*1499 FILLER_0_36_294
*1500 FILLER_0_36_3
*1501 FILLER_0_36_300
*1502 FILLER_0_36_32
*1503 FILLER_0_36_349
*1504 FILLER_0_36_44
*1505 FILLER_0_36_48
*1506 FILLER_0_36_60
*1507 FILLER_0_36_94
*1508 FILLER_0_37_108
*1509 FILLER_0_37_11
*1510 FILLER_0_37_123
*1511 FILLER_0_37_135
*1512 FILLER_0_37_143
*1513 FILLER_0_37_155
*1514 FILLER_0_37_169
*1515 FILLER_0_37_175
*1516 FILLER_0_37_214
*1517 FILLER_0_37_222
*1518 FILLER_0_37_225
*1519 FILLER_0_37_233
*1520 FILLER_0_37_257
*1521 FILLER_0_37_278
*1522 FILLER_0_37_3
*1523 FILLER_0_37_321
*1524 FILLER_0_37_33
*1525 FILLER_0_37_331
*1526 FILLER_0_37_340
*1527 FILLER_0_37_348
*1528 FILLER_0_37_57
*1529 FILLER_0_37_69
*1530 FILLER_0_37_75
*1531 FILLER_0_37_96
*1532 FILLER_0_38_102
*1533 FILLER_0_38_106
*1534 FILLER_0_38_110
*1535 FILLER_0_38_113
*1536 FILLER_0_38_118
*1537 FILLER_0_38_122
*1538 FILLER_0_38_126
*1539 FILLER_0_38_130
*1540 FILLER_0_38_134
*1541 FILLER_0_38_14
*1542 FILLER_0_38_141
*1543 FILLER_0_38_153
*1544 FILLER_0_38_165
*1545 FILLER_0_38_169
*1546 FILLER_0_38_18
*1547 FILLER_0_38_181
*1548 FILLER_0_38_193
*1549 FILLER_0_38_197
*1550 FILLER_0_38_218
*1551 FILLER_0_38_22
*1552 FILLER_0_38_225
*1553 FILLER_0_38_237
*1554 FILLER_0_38_260
*1555 FILLER_0_38_291
*1556 FILLER_0_38_3
*1557 FILLER_0_38_305
*1558 FILLER_0_38_309
*1559 FILLER_0_38_32
*1560 FILLER_0_38_344
*1561 FILLER_0_38_350
*1562 FILLER_0_38_38
*1563 FILLER_0_38_42
*1564 FILLER_0_38_46
*1565 FILLER_0_38_50
*1566 FILLER_0_38_54
*1567 FILLER_0_38_57
*1568 FILLER_0_38_62
*1569 FILLER_0_38_66
*1570 FILLER_0_38_70
*1571 FILLER_0_38_74
*1572 FILLER_0_38_78
*1573 FILLER_0_38_88
*1574 FILLER_0_38_94
*1575 FILLER_0_38_98
*1576 FILLER_0_3_105
*1577 FILLER_0_3_111
*1578 FILLER_0_3_113
*1579 FILLER_0_3_125
*1580 FILLER_0_3_137
*1581 FILLER_0_3_149
*1582 FILLER_0_3_15
*1583 FILLER_0_3_161
*1584 FILLER_0_3_167
*1585 FILLER_0_3_169
*1586 FILLER_0_3_181
*1587 FILLER_0_3_193
*1588 FILLER_0_3_205
*1589 FILLER_0_3_217
*1590 FILLER_0_3_223
*1591 FILLER_0_3_225
*1592 FILLER_0_3_237
*1593 FILLER_0_3_249
*1594 FILLER_0_3_261
*1595 FILLER_0_3_27