*SPEF "ieee 1481-1999"
*DESIGN "tt_um_wokwi_375245713375900673"
*DATE "11:11:11 Fri 11 11, 1111"
*VENDOR "OpenRCX"
*PROGRAM "Parallel Extraction"
*VERSION "1.0"
*DESIGN_FLOW "NAME_SCOPE LOCAL" "PIN_CAP NONE"
*DIVIDER /
*DELIMITER :
*BUS_DELIMITER []
*T_UNIT 1 NS
*C_UNIT 1 PF
*R_UNIT 1 OHM
*L_UNIT 1 HENRY

*NAME_MAP
*3 clk
*4 ena
*5 rst_n
*6 ui_in[0]
*7 ui_in[1]
*8 ui_in[2]
*9 ui_in[3]
*10 ui_in[4]
*11 ui_in[5]
*12 ui_in[6]
*13 ui_in[7]
*14 uio_in[0]
*15 uio_in[1]
*16 uio_in[2]
*17 uio_in[3]
*18 uio_in[4]
*19 uio_in[5]
*20 uio_in[6]
*21 uio_in[7]
*22 net2
*23 net3
*24 net4
*25 net5
*26 net6
*27 net7
*28 net8
*29 net9
*30 net10
*31 net11
*32 net12
*33 net13
*34 net14
*35 net15
*36 net16
*37 net17
*38 uo_out[0]
*39 uo_out[1]
*40 uo_out[2]
*41 uo_out[3]
*42 uo_out[4]
*43 uo_out[5]
*44 uo_out[6]
*45 uo_out[7]
*46 _000_
*47 _001_
*48 _002_
*49 _003_
*50 _004_
*51 _005_
*52 _006_
*53 _007_
*54 _008_
*55 _009_
*56 _010_
*57 _011_
*58 _012_
*59 _013_
*60 _014_
*61 _015_
*62 _016_
*63 _017_
*64 _018_
*65 _019_
*66 _020_
*67 _021_
*68 _022_
*69 _023_
*70 _024_
*71 _025_
*72 _026_
*73 _027_
*74 _028_
*75 _029_
*76 _030_
*77 _031_
*78 _032_
*79 and1\.a
*80 and1\.b
*81 and1\.out
*82 and12\.a
*83 and12\.b
*84 and13\.b
*85 and15\.out
*86 and17\.a
*87 and17\.b
*88 and18\.out
*89 and19\.b
*90 and19\.out
*91 and2\.a
*92 and24\.out
*93 and26\.b
*94 and27\.out
*95 and29\.a
*96 and3\.out
*97 and31\.out
*98 and33\.b
*99 and5\.out
*100 and7\.a
*101 and8\.out
*102 clknet_0_clk
*103 clknet_1_0__leaf_clk
*104 clknet_1_1__leaf_clk
*105 flop1\.r
*106 flop10\.d
*107 flop10\.r
*108 flop15\.d
*109 flop15\.q
*110 flop16\.d
*111 flop19\.r
*112 flop22\.d
*113 flop3\.d
*114 flop4\.d
*115 flop7\.d
*116 flop7\.q
*117 net1
*118 net18
*119 net19
*120 net20
*121 net21
*122 net22
*123 net23
*124 net24
*125 net25
*126 net26
*127 net27
*128 net28
*129 net29
*130 net30
*131 net31
*132 net32
*133 net33
*134 net34
*135 net35
*136 net36
*137 net37
*138 net38
*139 net39
*140 net40
*141 or1\.out
*142 FILLER_0_0_109
*143 FILLER_0_0_113
*144 FILLER_0_0_125
*145 FILLER_0_0_137
*146 FILLER_0_0_141
*147 FILLER_0_0_15
*148 FILLER_0_0_153
*149 FILLER_0_0_165
*150 FILLER_0_0_169
*151 FILLER_0_0_181
*152 FILLER_0_0_193
*153 FILLER_0_0_197
*154 FILLER_0_0_209
*155 FILLER_0_0_221
*156 FILLER_0_0_225
*157 FILLER_0_0_237
*158 FILLER_0_0_249
*159 FILLER_0_0_253
*160 FILLER_0_0_265
*161 FILLER_0_0_27
*162 FILLER_0_0_277
*163 FILLER_0_0_281
*164 FILLER_0_0_29
*165 FILLER_0_0_293
*166 FILLER_0_0_3
*167 FILLER_0_0_305
*168 FILLER_0_0_309
*169 FILLER_0_0_321
*170 FILLER_0_0_333
*171 FILLER_0_0_337
*172 FILLER_0_0_349
*173 FILLER_0_0_41
*174 FILLER_0_0_53
*175 FILLER_0_0_57
*176 FILLER_0_0_69
*177 FILLER_0_0_81
*178 FILLER_0_0_85
*179 FILLER_0_0_97
*180 FILLER_0_10_109
*181 FILLER_0_10_121
*182 FILLER_0_10_133
*183 FILLER_0_10_139
*184 FILLER_0_10_141
*185 FILLER_0_10_15
*186 FILLER_0_10_153
*187 FILLER_0_10_165
*188 FILLER_0_10_177
*189 FILLER_0_10_189
*190 FILLER_0_10_195
*191 FILLER_0_10_197
*192 FILLER_0_10_209
*193 FILLER_0_10_221
*194 FILLER_0_10_233
*195 FILLER_0_10_245
*196 FILLER_0_10_251
*197 FILLER_0_10_253
*198 FILLER_0_10_265
*199 FILLER_0_10_27
*200 FILLER_0_10_277
*201 FILLER_0_10_289
*202 FILLER_0_10_29
*203 FILLER_0_10_3
*204 FILLER_0_10_301
*205 FILLER_0_10_307
*206 FILLER_0_10_309
*207 FILLER_0_10_321
*208 FILLER_0_10_333
*209 FILLER_0_10_345
*210 FILLER_0_10_41
*211 FILLER_0_10_53
*212 FILLER_0_10_65
*213 FILLER_0_10_77
*214 FILLER_0_10_83
*215 FILLER_0_10_85
*216 FILLER_0_10_97
*217 FILLER_0_11_105
*218 FILLER_0_11_111
*219 FILLER_0_11_113
*220 FILLER_0_11_125
*221 FILLER_0_11_137
*222 FILLER_0_11_149
*223 FILLER_0_11_15
*224 FILLER_0_11_161
*225 FILLER_0_11_167
*226 FILLER_0_11_169
*227 FILLER_0_11_181
*228 FILLER_0_11_193
*229 FILLER_0_11_205
*230 FILLER_0_11_217
*231 FILLER_0_11_223
*232 FILLER_0_11_225
*233 FILLER_0_11_237
*234 FILLER_0_11_249
*235 FILLER_0_11_261
*236 FILLER_0_11_27
*237 FILLER_0_11_273
*238 FILLER_0_11_279
*239 FILLER_0_11_281
*240 FILLER_0_11_293
*241 FILLER_0_11_3
*242 FILLER_0_11_305
*243 FILLER_0_11_317
*244 FILLER_0_11_329
*245 FILLER_0_11_335
*246 FILLER_0_11_337
*247 FILLER_0_11_349
*248 FILLER_0_11_39
*249 FILLER_0_11_51
*250 FILLER_0_11_55
*251 FILLER_0_11_57
*252 FILLER_0_11_69
*253 FILLER_0_11_81
*254 FILLER_0_11_93
*255 FILLER_0_12_109
*256 FILLER_0_12_121
*257 FILLER_0_12_133
*258 FILLER_0_12_139
*259 FILLER_0_12_141
*260 FILLER_0_12_15
*261 FILLER_0_12_153
*262 FILLER_0_12_165
*263 FILLER_0_12_177
*264 FILLER_0_12_189
*265 FILLER_0_12_195
*266 FILLER_0_12_197
*267 FILLER_0_12_209
*268 FILLER_0_12_221
*269 FILLER_0_12_233
*270 FILLER_0_12_245
*271 FILLER_0_12_251
*272 FILLER_0_12_253
*273 FILLER_0_12_265
*274 FILLER_0_12_27
*275 FILLER_0_12_277
*276 FILLER_0_12_289
*277 FILLER_0_12_29
*278 FILLER_0_12_3
*279 FILLER_0_12_301
*280 FILLER_0_12_307
*281 FILLER_0_12_309
*282 FILLER_0_12_321
*283 FILLER_0_12_333
*284 FILLER_0_12_345
*285 FILLER_0_12_41
*286 FILLER_0_12_53
*287 FILLER_0_12_65
*288 FILLER_0_12_77
*289 FILLER_0_12_83
*290 FILLER_0_12_85
*291 FILLER_0_12_97
*292 FILLER_0_13_105
*293 FILLER_0_13_111
*294 FILLER_0_13_113
*295 FILLER_0_13_125
*296 FILLER_0_13_137
*297 FILLER_0_13_149
*298 FILLER_0_13_15
*299 FILLER_0_13_161
*300 FILLER_0_13_167
*301 FILLER_0_13_169
*302 FILLER_0_13_181
*303 FILLER_0_13_193
*304 FILLER_0_13_205
*305 FILLER_0_13_217
*306 FILLER_0_13_223
*307 FILLER_0_13_225
*308 FILLER_0_13_237
*309 FILLER_0_13_249
*310 FILLER_0_13_261
*311 FILLER_0_13_27
*312 FILLER_0_13_273
*313 FILLER_0_13_279
*314 FILLER_0_13_281
*315 FILLER_0_13_293
*316 FILLER_0_13_3
*317 FILLER_0_13_305
*318 FILLER_0_13_317
*319 FILLER_0_13_329
*320 FILLER_0_13_335
*321 FILLER_0_13_337
*322 FILLER_0_13_349
*323 FILLER_0_13_39
*324 FILLER_0_13_51
*325 FILLER_0_13_55
*326 FILLER_0_13_57
*327 FILLER_0_13_69
*328 FILLER_0_13_81
*329 FILLER_0_13_93
*330 FILLER_0_14_109
*331 FILLER_0_14_121
*332 FILLER_0_14_133
*333 FILLER_0_14_139
*334 FILLER_0_14_141
*335 FILLER_0_14_15
*336 FILLER_0_14_153
*337 FILLER_0_14_165
*338 FILLER_0_14_177
*339 FILLER_0_14_189
*340 FILLER_0_14_195
*341 FILLER_0_14_197
*342 FILLER_0_14_209
*343 FILLER_0_14_221
*344 FILLER_0_14_233
*345 FILLER_0_14_245
*346 FILLER_0_14_251
*347 FILLER_0_14_253
*348 FILLER_0_14_265
*349 FILLER_0_14_27
*350 FILLER_0_14_277
*351 FILLER_0_14_289
*352 FILLER_0_14_29
*353 FILLER_0_14_3
*354 FILLER_0_14_301
*355 FILLER_0_14_307
*356 FILLER_0_14_309
*357 FILLER_0_14_321
*358 FILLER_0_14_333
*359 FILLER_0_14_345
*360 FILLER_0_14_41
*361 FILLER_0_14_53
*362 FILLER_0_14_65
*363 FILLER_0_14_77
*364 FILLER_0_14_83
*365 FILLER_0_14_85
*366 FILLER_0_14_97
*367 FILLER_0_15_105
*368 FILLER_0_15_111
*369 FILLER_0_15_113
*370 FILLER_0_15_125
*371 FILLER_0_15_137
*372 FILLER_0_15_149
*373 FILLER_0_15_15
*374 FILLER_0_15_161
*375 FILLER_0_15_167
*376 FILLER_0_15_169
*377 FILLER_0_15_181
*378 FILLER_0_15_193
*379 FILLER_0_15_205
*380 FILLER_0_15_217
*381 FILLER_0_15_223
*382 FILLER_0_15_225
*383 FILLER_0_15_237
*384 FILLER_0_15_249
*385 FILLER_0_15_261
*386 FILLER_0_15_27
*387 FILLER_0_15_273
*388 FILLER_0_15_279
*389 FILLER_0_15_281
*390 FILLER_0_15_293
*391 FILLER_0_15_3
*392 FILLER_0_15_305
*393 FILLER_0_15_317
*394 FILLER_0_15_329
*395 FILLER_0_15_335
*396 FILLER_0_15_337
*397 FILLER_0_15_349
*398 FILLER_0_15_39
*399 FILLER_0_15_51
*400 FILLER_0_15_55
*401 FILLER_0_15_57
*402 FILLER_0_15_69
*403 FILLER_0_15_81
*404 FILLER_0_15_93
*405 FILLER_0_16_109
*406 FILLER_0_16_121
*407 FILLER_0_16_133
*408 FILLER_0_16_139
*409 FILLER_0_16_141
*410 FILLER_0_16_15
*411 FILLER_0_16_153
*412 FILLER_0_16_165
*413 FILLER_0_16_177
*414 FILLER_0_16_189
*415 FILLER_0_16_195
*416 FILLER_0_16_197
*417 FILLER_0_16_209
*418 FILLER_0_16_221
*419 FILLER_0_16_233
*420 FILLER_0_16_245
*421 FILLER_0_16_251
*422 FILLER_0_16_253
*423 FILLER_0_16_265
*424 FILLER_0_16_27
*425 FILLER_0_16_277
*426 FILLER_0_16_289
*427 FILLER_0_16_29
*428 FILLER_0_16_3
*429 FILLER_0_16_301
*430 FILLER_0_16_307
*431 FILLER_0_16_309
*432 FILLER_0_16_321
*433 FILLER_0_16_333
*434 FILLER_0_16_345
*435 FILLER_0_16_41
*436 FILLER_0_16_53
*437 FILLER_0_16_65
*438 FILLER_0_16_77
*439 FILLER_0_16_83
*440 FILLER_0_16_85
*441 FILLER_0_16_97
*442 FILLER_0_17_105
*443 FILLER_0_17_111
*444 FILLER_0_17_113
*445 FILLER_0_17_125
*446 FILLER_0_17_137
*447 FILLER_0_17_149
*448 FILLER_0_17_15
*449 FILLER_0_17_161
*450 FILLER_0_17_167
*451 FILLER_0_17_169
*452 FILLER_0_17_181
*453 FILLER_0_17_193
*454 FILLER_0_17_205
*455 FILLER_0_17_217
*456 FILLER_0_17_223
*457 FILLER_0_17_225
*458 FILLER_0_17_237
*459 FILLER_0_17_249
*460 FILLER_0_17_261
*461 FILLER_0_17_27
*462 FILLER_0_17_273
*463 FILLER_0_17_279
*464 FILLER_0_17_281
*465 FILLER_0_17_293
*466 FILLER_0_17_3
*467 FILLER_0_17_305
*468 FILLER_0_17_317
*469 FILLER_0_17_329
*470 FILLER_0_17_335
*471 FILLER_0_17_337
*472 FILLER_0_17_349
*473 FILLER_0_17_39
*474 FILLER_0_17_51
*475 FILLER_0_17_55
*476 FILLER_0_17_57
*477 FILLER_0_17_69
*478 FILLER_0_17_81
*479 FILLER_0_17_93
*480 FILLER_0_18_109
*481 FILLER_0_18_121
*482 FILLER_0_18_133
*483 FILLER_0_18_139
*484 FILLER_0_18_141
*485 FILLER_0_18_15
*486 FILLER_0_18_153
*487 FILLER_0_18_165
*488 FILLER_0_18_177
*489 FILLER_0_18_189
*490 FILLER_0_18_195
*491 FILLER_0_18_197
*492 FILLER_0_18_209
*493 FILLER_0_18_221
*494 FILLER_0_18_233
*495 FILLER_0_18_245
*496 FILLER_0_18_251
*497 FILLER_0_18_253
*498 FILLER_0_18_265
*499 FILLER_0_18_27
*500 FILLER_0_18_277
*501 FILLER_0_18_289
*502 FILLER_0_18_29
*503 FILLER_0_18_3
*504 FILLER_0_18_301
*505 FILLER_0_18_307
*506 FILLER_0_18_309
*507 FILLER_0_18_321
*508 FILLER_0_18_333
*509 FILLER_0_18_345
*510 FILLER_0_18_41
*511 FILLER_0_18_53
*512 FILLER_0_18_65
*513 FILLER_0_18_77
*514 FILLER_0_18_83
*515 FILLER_0_18_85
*516 FILLER_0_18_97
*517 FILLER_0_19_105
*518 FILLER_0_19_111
*519 FILLER_0_19_113
*520 FILLER_0_19_125
*521 FILLER_0_19_137
*522 FILLER_0_19_149
*523 FILLER_0_19_15
*524 FILLER_0_19_161
*525 FILLER_0_19_167
*526 FILLER_0_19_169
*527 FILLER_0_19_181
*528 FILLER_0_19_193
*529 FILLER_0_19_205
*530 FILLER_0_19_217
*531 FILLER_0_19_223
*532 FILLER_0_19_225
*533 FILLER_0_19_237
*534 FILLER_0_19_249
*535 FILLER_0_19_261
*536 FILLER_0_19_27
*537 FILLER_0_19_273
*538 FILLER_0_19_279
*539 FILLER_0_19_281
*540 FILLER_0_19_293
*541 FILLER_0_19_3
*542 FILLER_0_19_305
*543 FILLER_0_19_317
*544 FILLER_0_19_329
*545 FILLER_0_19_335
*546 FILLER_0_19_337
*547 FILLER_0_19_349
*548 FILLER_0_19_39
*549 FILLER_0_19_51
*550 FILLER_0_19_55
*551 FILLER_0_19_57
*552 FILLER_0_19_69
*553 FILLER_0_19_81
*554 FILLER_0_19_93
*555 FILLER_0_1_105
*556 FILLER_0_1_111
*557 FILLER_0_1_113
*558 FILLER_0_1_125
*559 FILLER_0_1_137
*560 FILLER_0_1_149
*561 FILLER_0_1_15
*562 FILLER_0_1_161
*563 FILLER_0_1_167
*564 FILLER_0_1_169
*565 FILLER_0_1_181
*566 FILLER_0_1_193
*567 FILLER_0_1_205
*568 FILLER_0_1_217
*569 FILLER_0_1_223
*570 FILLER_0_1_225
*571 FILLER_0_1_237
*572 FILLER_0_1_249
*573 FILLER_0_1_261
*574 FILLER_0_1_27
*575 FILLER_0_1_273
*576 FILLER_0_1_279
*577 FILLER_0_1_281
*578 FILLER_0_1_293
*579 FILLER_0_1_3
*580 FILLER_0_1_305
*581 FILLER_0_1_317
*582 FILLER_0_1_329
*583 FILLER_0_1_335
*584 FILLER_0_1_337
*585 FILLER_0_1_349
*586 FILLER_0_1_39
*587 FILLER_0_1_51
*588 FILLER_0_1_55
*589 FILLER_0_1_57
*590 FILLER_0_1_69
*591 FILLER_0_1_81
*592 FILLER_0_1_93
*593 FILLER_0_20_109
*594 FILLER_0_20_121
*595 FILLER_0_20_133
*596 FILLER_0_20_139
*597 FILLER_0_20_141
*598 FILLER_0_20_15
*599 FILLER_0_20_153
*600 FILLER_0_20_165
*601 FILLER_0_20_177
*602 FILLER_0_20_189
*603 FILLER_0_20_195
*604 FILLER_0_20_197
*605 FILLER_0_20_209
*606 FILLER_0_20_221
*607 FILLER_0_20_233
*608 FILLER_0_20_245
*609 FILLER_0_20_251
*610 FILLER_0_20_253
*611 FILLER_0_20_265
*612 FILLER_0_20_27
*613 FILLER_0_20_277
*614 FILLER_0_20_289
*615 FILLER_0_20_29
*616 FILLER_0_20_3
*617 FILLER_0_20_301
*618 FILLER_0_20_307
*619 FILLER_0_20_309
*620 FILLER_0_20_321
*621 FILLER_0_20_333
*622 FILLER_0_20_345
*623 FILLER_0_20_41
*624 FILLER_0_20_53
*625 FILLER_0_20_65
*626 FILLER_0_20_77
*627 FILLER_0_20_83
*628 FILLER_0_20_85
*629 FILLER_0_20_97
*630 FILLER_0_21_105
*631 FILLER_0_21_111
*632 FILLER_0_21_113
*633 FILLER_0_21_125
*634 FILLER_0_21_137
*635 FILLER_0_21_149
*636 FILLER_0_21_15
*637 FILLER_0_21_161
*638 FILLER_0_21_167
*639 FILLER_0_21_169
*640 FILLER_0_21_181
*641 FILLER_0_21_193
*642 FILLER_0_21_205
*643 FILLER_0_21_217
*644 FILLER_0_21_223
*645 FILLER_0_21_225
*646 FILLER_0_21_237
*647 FILLER_0_21_249
*648 FILLER_0_21_261
*649 FILLER_0_21_27
*650 FILLER_0_21_273
*651 FILLER_0_21_279
*652 FILLER_0_21_281
*653 FILLER_0_21_293
*654 FILLER_0_21_3
*655 FILLER_0_21_305
*656 FILLER_0_21_317
*657 FILLER_0_21_329
*658 FILLER_0_21_335
*659 FILLER_0_21_337
*660 FILLER_0_21_349
*661 FILLER_0_21_39
*662 FILLER_0_21_51
*663 FILLER_0_21_55
*664 FILLER_0_21_57
*665 FILLER_0_21_69
*666 FILLER_0_21_81
*667 FILLER_0_21_93
*668 FILLER_0_22_109
*669 FILLER_0_22_121
*670 FILLER_0_22_133
*671 FILLER_0_22_139
*672 FILLER_0_22_141
*673 FILLER_0_22_15
*674 FILLER_0_22_153
*675 FILLER_0_22_165
*676 FILLER_0_22_177
*677 FILLER_0_22_189
*678 FILLER_0_22_195
*679 FILLER_0_22_197
*680 FILLER_0_22_209
*681 FILLER_0_22_221
*682 FILLER_0_22_233
*683 FILLER_0_22_245
*684 FILLER_0_22_251
*685 FILLER_0_22_253
*686 FILLER_0_22_265
*687 FILLER_0_22_27
*688 FILLER_0_22_277
*689 FILLER_0_22_289
*690 FILLER_0_22_29
*691 FILLER_0_22_3
*692 FILLER_0_22_301
*693 FILLER_0_22_307
*694 FILLER_0_22_309
*695 FILLER_0_22_321
*696 FILLER_0_22_333
*697 FILLER_0_22_345
*698 FILLER_0_22_41
*699 FILLER_0_22_53
*700 FILLER_0_22_65
*701 FILLER_0_22_77
*702 FILLER_0_22_83
*703 FILLER_0_22_85
*704 FILLER_0_22_97
*705 FILLER_0_23_105
*706 FILLER_0_23_111
*707 FILLER_0_23_113
*708 FILLER_0_23_125
*709 FILLER_0_23_137
*710 FILLER_0_23_149
*711 FILLER_0_23_15
*712 FILLER_0_23_161
*713 FILLER_0_23_167
*714 FILLER_0_23_169
*715 FILLER_0_23_181
*716 FILLER_0_23_193
*717 FILLER_0_23_205
*718 FILLER_0_23_217
*719 FILLER_0_23_223
*720 FILLER_0_23_225
*721 FILLER_0_23_237
*722 FILLER_0_23_249
*723 FILLER_0_23_261
*724 FILLER_0_23_27
*725 FILLER_0_23_273
*726 FILLER_0_23_279
*727 FILLER_0_23_281
*728 FILLER_0_23_293
*729 FILLER_0_23_3
*730 FILLER_0_23_305
*731 FILLER_0_23_317
*732 FILLER_0_23_329
*733 FILLER_0_23_335
*734 FILLER_0_23_337
*735 FILLER_0_23_349
*736 FILLER_0_23_39
*737 FILLER_0_23_51
*738 FILLER_0_23_55
*739 FILLER_0_23_57
*740 FILLER_0_23_69
*741 FILLER_0_23_81
*742 FILLER_0_23_93
*743 FILLER_0_24_109
*744 FILLER_0_24_121
*745 FILLER_0_24_133
*746 FILLER_0_24_139
*747 FILLER_0_24_141
*748 FILLER_0_24_15
*749 FILLER_0_24_153
*750 FILLER_0_24_165
*751 FILLER_0_24_177
*752 FILLER_0_24_189
*753 FILLER_0_24_195
*754 FILLER_0_24_197
*755 FILLER_0_24_209
*756 FILLER_0_24_221
*757 FILLER_0_24_233
*758 FILLER_0_24_245
*759 FILLER_0_24_251
*760 FILLER_0_24_253
*761 FILLER_0_24_265
*762 FILLER_0_24_27
*763 FILLER_0_24_277
*764 FILLER_0_24_289
*765 FILLER_0_24_29
*766 FILLER_0_24_3
*767 FILLER_0_24_301
*768 FILLER_0_24_307
*769 FILLER_0_24_309
*770 FILLER_0_24_321
*771 FILLER_0_24_333
*772 FILLER_0_24_345
*773 FILLER_0_24_41
*774 FILLER_0_24_53
*775 FILLER_0_24_65
*776 FILLER_0_24_77
*777 FILLER_0_24_83
*778 FILLER_0_24_85
*779 FILLER_0_24_97
*780 FILLER_0_25_105
*781 FILLER_0_25_111
*782 FILLER_0_25_113
*783 FILLER_0_25_125
*784 FILLER_0_25_137
*785 FILLER_0_25_149
*786 FILLER_0_25_15
*787 FILLER_0_25_161
*788 FILLER_0_25_167
*789 FILLER_0_25_169
*790 FILLER_0_25_181
*791 FILLER_0_25_193
*792 FILLER_0_25_205
*793 FILLER_0_25_217
*794 FILLER_0_25_223
*795 FILLER_0_25_225
*796 FILLER_0_25_237
*797 FILLER_0_25_249
*798 FILLER_0_25_261
*799 FILLER_0_25_27
*800 FILLER_0_25_273
*801 FILLER_0_25_279
*802 FILLER_0_25_281
*803 FILLER_0_25_293
*804 FILLER_0_25_3
*805 FILLER_0_25_305
*806 FILLER_0_25_317
*807 FILLER_0_25_329
*808 FILLER_0_25_335
*809 FILLER_0_25_337
*810 FILLER_0_25_349
*811 FILLER_0_25_39
*812 FILLER_0_25_51
*813 FILLER_0_25_55
*814 FILLER_0_25_57
*815 FILLER_0_25_69
*816 FILLER_0_25_81
*817 FILLER_0_25_93
*818 FILLER_0_26_109
*819 FILLER_0_26_121
*820 FILLER_0_26_133
*821 FILLER_0_26_139
*822 FILLER_0_26_141
*823 FILLER_0_26_15
*824 FILLER_0_26_153
*825 FILLER_0_26_165
*826 FILLER_0_26_177
*827 FILLER_0_26_189
*828 FILLER_0_26_195
*829 FILLER_0_26_197
*830 FILLER_0_26_209
*831 FILLER_0_26_221
*832 FILLER_0_26_233
*833 FILLER_0_26_245
*834 FILLER_0_26_251
*835 FILLER_0_26_253
*836 FILLER_0_26_265
*837 FILLER_0_26_27
*838 FILLER_0_26_277
*839 FILLER_0_26_289
*840 FILLER_0_26_29
*841 FILLER_0_26_3
*842 FILLER_0_26_301
*843 FILLER_0_26_307
*844 FILLER_0_26_309
*845 FILLER_0_26_321
*846 FILLER_0_26_333
*847 FILLER_0_26_345
*848 FILLER_0_26_41
*849 FILLER_0_26_53
*850 FILLER_0_26_65
*851 FILLER_0_26_77
*852 FILLER_0_26_83
*853 FILLER_0_26_85
*854 FILLER_0_26_97
*855 FILLER_0_27_105
*856 FILLER_0_27_111
*857 FILLER_0_27_113
*858 FILLER_0_27_125
*859 FILLER_0_27_137
*860 FILLER_0_27_149
*861 FILLER_0_27_15
*862 FILLER_0_27_161
*863 FILLER_0_27_167
*864 FILLER_0_27_169
*865 FILLER_0_27_181
*866 FILLER_0_27_193
*867 FILLER_0_27_205
*868 FILLER_0_27_217
*869 FILLER_0_27_223
*870 FILLER_0_27_225
*871 FILLER_0_27_237
*872 FILLER_0_27_249
*873 FILLER_0_27_261
*874 FILLER_0_27_27
*875 FILLER_0_27_273
*876 FILLER_0_27_279
*877 FILLER_0_27_281
*878 FILLER_0_27_293
*879 FILLER_0_27_3
*880 FILLER_0_27_305
*881 FILLER_0_27_317
*882 FILLER_0_27_329
*883 FILLER_0_27_335
*884 FILLER_0_27_337
*885 FILLER_0_27_349
*886 FILLER_0_27_39
*887 FILLER_0_27_51
*888 FILLER_0_27_55
*889 FILLER_0_27_57
*890 FILLER_0_27_69
*891 FILLER_0_27_81
*892 FILLER_0_27_93
*893 FILLER_0_28_109
*894 FILLER_0_28_121
*895 FILLER_0_28_133
*896 FILLER_0_28_139
*897 FILLER_0_28_141
*898 FILLER_0_28_15
*899 FILLER_0_28_153
*900 FILLER_0_28_165
*901 FILLER_0_28_177
*902 FILLER_0_28_189
*903 FILLER_0_28_195
*904 FILLER_0_28_197
*905 FILLER_0_28_209
*906 FILLER_0_28_221
*907 FILLER_0_28_233
*908 FILLER_0_28_245
*909 FILLER_0_28_251
*910 FILLER_0_28_253
*911 FILLER_0_28_265
*912 FILLER_0_28_27
*913 FILLER_0_28_277
*914 FILLER_0_28_289
*915 FILLER_0_28_29
*916 FILLER_0_28_3
*917 FILLER_0_28_301
*918 FILLER_0_28_307
*919 FILLER_0_28_309
*920 FILLER_0_28_321
*921 FILLER_0_28_333
*922 FILLER_0_28_345
*923 FILLER_0_28_41
*924 FILLER_0_28_53
*925 FILLER_0_28_65
*926 FILLER_0_28_77
*927 FILLER_0_28_83
*928 FILLER_0_28_85
*929 FILLER_0_28_97
*930 FILLER_0_29_105
*931 FILLER_0_29_111
*932 FILLER_0_29_113
*933 FILLER_0_29_125
*934 FILLER_0_29_137
*935 FILLER_0_29_149
*936 FILLER_0_29_15
*937 FILLER_0_29_161
*938 FILLER_0_29_167
*939 FILLER_0_29_169
*940 FILLER_0_29_181
*941 FILLER_0_29_193
*942 FILLER_0_29_205
*943 FILLER_0_29_217
*944 FILLER_0_29_223
*945 FILLER_0_29_225
*946 FILLER_0_29_237
*947 FILLER_0_29_249
*948 FILLER_0_29_261
*949 FILLER_0_29_27
*950 FILLER_0_29_273
*951 FILLER_0_29_279
*952 FILLER_0_29_281
*953 FILLER_0_29_293
*954 FILLER_0_29_3
*955 FILLER_0_29_305
*956 FILLER_0_29_317
*957 FILLER_0_29_329
*958 FILLER_0_29_335
*959 FILLER_0_29_337
*960 FILLER_0_29_349
*961 FILLER_0_29_39
*962 FILLER_0_29_51
*963 FILLER_0_29_55
*964 FILLER_0_29_57
*965 FILLER_0_29_69
*966 FILLER_0_29_81
*967 FILLER_0_29_93
*968 FILLER_0_2_109
*969 FILLER_0_2_121
*970 FILLER_0_2_133
*971 FILLER_0_2_139
*972 FILLER_0_2_141
*973 FILLER_0_2_15
*974 FILLER_0_2_153
*975 FILLER_0_2_165
*976 FILLER_0_2_177
*977 FILLER_0_2_189
*978 FILLER_0_2_195
*979 FILLER_0_2_197
*980 FILLER_0_2_209
*981 FILLER_0_2_221
*982 FILLER_0_2_233
*983 FILLER_0_2_245
*984 FILLER_0_2_251
*985 FILLER_0_2_253
*986 FILLER_0_2_265
*987 FILLER_0_2_27
*988 FILLER_0_2_277
*989 FILLER_0_2_289
*990 FILLER_0_2_29
*991 FILLER_0_2_3
*992 FILLER_0_2_301
*993 FILLER_0_2_307
*994 FILLER_0_2_309
*995 FILLER_0_2_321
*996 FILLER_0_2_333
*997 FILLER_0_2_345
*998 FILLER_0_2_41
*999 FILLER_0_2_53
*1000 FILLER_0_2_65
*1001 FILLER_0_2_77
*1002 FILLER_0_2_83
*1003 FILLER_0_2_85
*1004 FILLER_0_2_97
*1005 FILLER_0_30_109
*1006 FILLER_0_30_121
*1007 FILLER_0_30_133
*1008 FILLER_0_30_139
*1009 FILLER_0_30_141
*1010 FILLER_0_30_15
*1011 FILLER_0_30_153
*1012 FILLER_0_30_165
*1013 FILLER_0_30_177
*1014 FILLER_0_30_189
*1015 FILLER_0_30_195
*1016 FILLER_0_30_197
*1017 FILLER_0_30_209
*1018 FILLER_0_30_221
*1019 FILLER_0_30_233
*1020 FILLER_0_30_245
*1021 FILLER_0_30_251
*1022 FILLER_0_30_253
*1023 FILLER_0_30_265
*1024 FILLER_0_30_27
*1025 FILLER_0_30_277
*1026 FILLER_0_30_289
*1027 FILLER_0_30_29
*1028 FILLER_0_30_294
*1029 FILLER_0_30_3
*1030 FILLER_0_30_306
*1031 FILLER_0_30_309
*1032 FILLER_0_30_321
*1033 FILLER_0_30_333
*1034 FILLER_0_30_345
*1035 FILLER_0_30_41
*1036 FILLER_0_30_53
*1037 FILLER_0_30_65
*1038 FILLER_0_30_77
*1039 FILLER_0_30_83
*1040 FILLER_0_30_85
*1041 FILLER_0_30_97
*1042 FILLER_0_31_105
*1043 FILLER_0_31_111
*1044 FILLER_0_31_113
*1045 FILLER_0_31_125
*1046 FILLER_0_31_137
*1047 FILLER_0_31_149
*1048 FILLER_0_31_15
*1049 FILLER_0_31_161
*1050 FILLER_0_31_167
*1051 FILLER_0_31_169
*1052 FILLER_0_31_181
*1053 FILLER_0_31_193
*1054 FILLER_0_31_201
*1055 FILLER_0_31_205
*1056 FILLER_0_31_213
*1057 FILLER_0_31_222
*1058 FILLER_0_31_27
*1059 FILLER_0_31_270
*1060 FILLER_0_31_279
*1061 FILLER_0_31_3
*1062 FILLER_0_31_301
*1063 FILLER_0_31_313
*1064 FILLER_0_31_325
*1065 FILLER_0_31_333
*1066 FILLER_0_31_337
*1067 FILLER_0_31_349
*1068 FILLER_0_31_39
*1069 FILLER_0_31_51
*1070 FILLER_0_31_55
*1071 FILLER_0_31_57
*1072 FILLER_0_31_69
*1073 FILLER_0_31_81
*1074 FILLER_0_31_93
*1075 FILLER_0_32_109
*1076 FILLER_0_32_121
*1077 FILLER_0_32_133
*1078 FILLER_0_32_139
*1079 FILLER_0_32_141
*1080 FILLER_0_32_15
*1081 FILLER_0_32_153
*1082 FILLER_0_32_165
*1083 FILLER_0_32_171
*1084 FILLER_0_32_181
*1085 FILLER_0_32_217
*1086 FILLER_0_32_241
*1087 FILLER_0_32_247
*1088 FILLER_0_32_27
*1089 FILLER_0_32_29
*1090 FILLER_0_32_3
*1091 FILLER_0_32_305
*1092 FILLER_0_32_309
*1093 FILLER_0_32_321
*1094 FILLER_0_32_333
*1095 FILLER_0_32_345
*1096 FILLER_0_32_41
*1097 FILLER_0_32_53
*1098 FILLER_0_32_65
*1099 FILLER_0_32_77
*1100 FILLER_0_32_83
*1101 FILLER_0_32_85
*1102 FILLER_0_32_97
*1103 FILLER_0_33_105
*1104 FILLER_0_33_111
*1105 FILLER_0_33_113
*1106 FILLER_0_33_125
*1107 FILLER_0_33_137
*1108 FILLER_0_33_149
*1109 FILLER_0_33_15
*1110 FILLER_0_33_161
*1111 FILLER_0_33_167
*1112 FILLER_0_33_189
*1113 FILLER_0_33_203
*1114 FILLER_0_33_225
*1115 FILLER_0_33_260
*1116 FILLER_0_33_27
*1117 FILLER_0_33_297
*1118 FILLER_0_33_3
*1119 FILLER_0_33_309
*1120 FILLER_0_33_321
*1121 FILLER_0_33_333
*1122 FILLER_0_33_337
*1123 FILLER_0_33_349
*1124 FILLER_0_33_39
*1125 FILLER_0_33_51
*1126 FILLER_0_33_55
*1127 FILLER_0_33_57
*1128 FILLER_0_33_69
*1129 FILLER_0_33_81
*1130 FILLER_0_33_93
*1131 FILLER_0_34_109
*1132 FILLER_0_34_121
*1133 FILLER_0_34_133
*1134 FILLER_0_34_139
*1135 FILLER_0_34_141
*1136 FILLER_0_34_15
*1137 FILLER_0_34_153
*1138 FILLER_0_34_175
*1139 FILLER_0_34_195
*1140 FILLER_0_34_197
*1141 FILLER_0_34_217
*1142 FILLER_0_34_232
*1143 FILLER_0_34_241
*1144 FILLER_0_34_249
*1145 FILLER_0_34_253
*1146 FILLER_0_34_259
*1147 FILLER_0_34_267
*1148 FILLER_0_34_27
*1149 FILLER_0_34_276
*1150 FILLER_0_34_288
*1151 FILLER_0_34_29
*1152 FILLER_0_34_3
*1153 FILLER_0_34_309
*1154 FILLER_0_34_321
*1155 FILLER_0_34_333
*1156 FILLER_0_34_345
*1157 FILLER_0_34_41
*1158 FILLER_0_34_53
*1159 FILLER_0_34_65
*1160 FILLER_0_34_77
*1161 FILLER_0_34_83
*1162 FILLER_0_34_85
*1163 FILLER_0_34_97
*1164 FILLER_0_35_105
*1165 FILLER_0_35_111
*1166 FILLER_0_35_113
*1167 FILLER_0_35_125
*1168 FILLER_0_35_137
*1169 FILLER_0_35_149
*1170 FILLER_0_35_15
*1171 FILLER_0_35_161
*1172 FILLER_0_35_169
*1173 FILLER_0_35_182
*1174 FILLER_0_35_193
*1175 FILLER_0_35_205
*1176 FILLER_0_35_220
*1177 FILLER_0_35_233
*1178 FILLER_0_35_269
*1179 FILLER_0_35_27
*1180 FILLER_0_35_292
*1181 FILLER_0_35_3
*1182 FILLER_0_35_305
*1183 FILLER_0_35_325
*1184 FILLER_0_35_333
*1185 FILLER_0_35_337
*1186 FILLER_0_35_349
*1187 FILLER_0_35_39
*1188 FILLER_0_35_51
*1189 FILLER_0_35_55
*1190 FILLER_0_35_57
*1191 FILLER_0_35_69
*1192 FILLER_0_35_81
*1193 FILLER_0_35_93
*1194 FILLER_0_36_109
*1195 FILLER_0_36_121
*1196 FILLER_0_36_133
*1197 FILLER_0_36_139
*1198 FILLER_0_36_141
*1199 FILLER_0_36_15
*1200 FILLER_0_36_153
*1201 FILLER_0_36_165
*1202 FILLER_0_36_175
*1203 FILLER_0_36_185
*1204 FILLER_0_36_197
*1205 FILLER_0_36_205
*1206 FILLER_0_36_222
*1207 FILLER_0_36_228
*1208 FILLER_0_36_245
*1209 FILLER_0_36_268
*1210 FILLER_0_36_27
*1211 FILLER_0_36_29
*1212 FILLER_0_36_3
*1213 FILLER_0_36_304
*1214 FILLER_0_36_329
*1215 FILLER_0_36_341
*1216 FILLER_0_36_349
*1217 FILLER_0_36_41
*1218 FILLER_0_36_53
*1219 FILLER_0_36_65
*1220 FILLER_0_36_77
*1221 FILLER_0_36_83
*1222 FILLER_0_36_85
*1223 FILLER_0_36_97
*1224 FILLER_0_37_105
*1225 FILLER_0_37_111
*1226 FILLER_0_37_113
*1227 FILLER_0_37_125
*1228 FILLER_0_37_137
*1229 FILLER_0_37_149
*1230 FILLER_0_37_15
*1231 FILLER_0_37_161
*1232 FILLER_0_37_177
*1233 FILLER_0_37_185
*1234 FILLER_0_37_189
*1235 FILLER_0_37_198
*1236 FILLER_0_37_206
*1237 FILLER_0_37_214
*1238 FILLER_0_37_222
*1239 FILLER_0_37_225
*1240 FILLER_0_37_27
*1241 FILLER_0_37_277
*1242 FILLER_0_37_281
*1243 FILLER_0_37_288
*1244 FILLER_0_37_3
*1245 FILLER_0_37_300
*1246 FILLER_0_37_312
*1247 FILLER_0_37_324
*1248 FILLER_0_37_337
*1249 FILLER_0_37_349
*1250 FILLER_0_37_39
*1251 FILLER_0_37_51
*1252 FILLER_0_37_55
*1253 FILLER_0_37_57
*1254 FILLER_0_37_69
*1255 FILLER_0_37_81
*1256 FILLER_0_37_93
*1257 FILLER_0_38_102
*1258 FILLER_0_38_106
*1259 FILLER_0_38_110
*1260 FILLER_0_38_113
*1261 FILLER_0_38_118
*1262 FILLER_0_38_122
*1263 FILLER_0_38_126
*1264 FILLER_0_38_130
*1265 FILLER_0_38_134
*1266 FILLER_0_38_14
*1267 FILLER_0_38_141
*1268 FILLER_0_38_153
*1269 FILLER_0_38_159
*1270 FILLER_0_38_165
*1271 FILLER_0_38_173
*1272 FILLER_0_38_18
*1273 FILLER_0_38_188
*1274 FILLER_0_38_195
*1275 FILLER_0_38_201
*1276 FILLER_0_38_22
*1277 FILLER_0_38_233
*1278 FILLER_0_38_241
*1279 FILLER_0_38_253
*1280 FILLER_0_38_281
*1281 FILLER_0_38_293
*1282 FILLER_0_38_3
*1283 FILLER_0_38_305
*1284 FILLER_0_38_309
*1285 FILLER_0_38_32
*1286 FILLER_0_38_321
*1287 FILLER_0_38_333
*1288 FILLER_0_38_347
*1289 FILLER_0_38_38
*1290 FILLER_0_38_42
*1291 FILLER_0_38_46
*1292 FILLER_0_38_50
*1293 FILLER_0_38_54
*1294 FILLER_0_38_57
*1295 FILLER_0_38_62
*1296 FILLER_0_38_66
*1297 FILLER_0_38_70
*1298 FILLER_0_38_74
*1299 FILLER_0_38_78
*1300 FILLER_0_38_88
*1301 FILLER_0_38_94
*1302 FILLER_0_38_98
*1303 FILLER_0_3_105
*1304 FILLER_0_3_111
*1305 FILLER_0_3_113
*1306 FILLER_0_3_125
*1307 FILLER_0_3_137
*1308 FILLER_0_3_149
*1309 FILLER_0_3_15
*1310 FILLER_0_3_161
*1311 FILLER_0_3_167
*1312 FILLER_0_3_169
*1313 FILLER_0_3_181
*1314 FILLER_0_3_193
*1315 FILLER_0_3_205
*1316 FILLER_0_3_217
*1317 FILLER_0_3_223
*1318 FILLER_0_3_225
*1319 FILLER_0_3_237
*1320 FILLER_0_3_249
*1321 FILLER_0_3_261
*1322 FILLER_0_3_27
*1323 FILLER_0_3_273
*1324 FILLER_0_3_279
*1325 FILLER_0_3_281
*1326 FILLER_0_3_293
*1327 FILLER_0_3_3
*1328 FILLER_0_3_305
*1329 FILLER_0_3_317
*1330 FILLER_0_3_329
*1331 FILLER_0_3_335
*1332 FILLER_0_3_337
*1333 FILLER_0_3_349
*1334 FILLER_0_3_39
*1335 FILLER_0_3_51
*1336 FILLER_0_3_55
*1337 FILLER_0_3_57
*1338 FILLER_0_3_69
*1339 FILLER_0_3_81
*1340 FILLER_0_3_93
*1341 FILLER_0_4_109
*1342 FILLER_0_4_121
*1343 FILLER_0_4_133
*1344 FILLER_0_4_139
*1345 FILLER_0_4_141
*1346 FILLER_0_4_15
*1347 FILLER_0_4_153
*1348 FILLER_0_4_165
*1349 FILLER_0_4_177
*1350 FILLER_0_4_189
*1351 FILLER_0_4_195
*1352 FILLER_0_4_197
*1353 FILLER_0_4_209
*1354 FILLER_0_4_221
*1355 FILLER_0_4_233
*1356 FILLER_0_4_245
*1357 FILLER_0_4_251
*1358 FILLER_0_4_253
*1359 FILLER_0_4_265
*1360 FILLER_0_4_27
*1361 FILLER_0_4_277
*1362 FILLER_0_4_289
*1363 FILLER_0_4_29
*1364 FILLER_0_4_3
*1365 FILLER_0_4_301
*1366 FILLER_0_4_307
*1367 FILLER_0_4_309
*1368 FILLER_0_4_321
*1369 FILLER_0_4_333
*1370 FILLER_0_4_345
*1371 FILLER_0_4_41
*1372 FILLER_0_4_53
*1373 FILLER_0_4_65
*1374 FILLER_0_4_77
*1375 FILLER_0_4_83
*1376 FILLER_0_4_85
*1377 FILLER_0_4_97
*1378 FILLER_0_5_105
*1379 FILLER_0_5_111
*1380 FILLER_0_5_113
*1381 FILLER_0_5_125
*1382 FILLER_0_5_137
*1383 FILLER_0_5_149
*1384 FILLER_0_5_15
*1385 FILLER_0_5_161
*1386 FILLER_0_5_167
*1387 FILLER_0_5_169
*1388 FILLER_0_5_181
*1389 FILLER_0_5_193
*1390 FILLER_0_5_205
*1391 FILLER_0_5_217
*1392 FILLER_0_5_223
*1393 FILLER_0_5_225
*1394 FILLER_0_5_237
*1395 FILLER_0_5_249
*1396 FILLER_0_5_261
*1397 FILLER_0_5_27
*1398 FILLER_0_5_273
*1399 FILLER_0_5_279
*1400 FILLER_0_5_281
*1401 FILLER_0_5_293
*1402 FILLER_0_5_3
*1403 FILLER_0_5_305
*1404 FILLER_0_5_317
*1405 FILLER_0_5_329
*1406 FILLER_0_5_335
*1407 FILLER_0_5_337
*1408 FILLER_0_5_349
*1409 FILLER_0_5_39
*1410 FILLER_0_5_51
*1411 FILLER_0_5_55
*1412 FILLER_0_5_57
*1413 FILLER_0_5_69
*1414 FILLER_0_5_81
*1415 FILLER_0_5_93
*1416 FILLER_0_6_109
*1417 FILLER_0_6_121
*1418 FILLER_0_6_133
*1419 FILLER_0_6_139
*1420 FILLER_0_6_141
*1421 FILLER_0_6_15
*1422 FILLER_0_6_153
*1423 FILLER_0_6_165
*1424 FILLER_0_6_177
*1425 FILLER_0_6_189
*1426 FILLER_0_6_195
*1427 FILLER_0_6_197
*1428 FILLER_0_6_209
*1429 FILLER_0_6_221
*1430 FILLER_0_6_233
*1431 FILLER_0_6_245
*1432 FILLER_0_6_251
*1433 FILLER_0_6_253
*1434 FILLER_0_6_265
*1435 FILLER_0_6_27
*1436 FILLER_0_6_277
*1437 FILLER_0_6_289
*1438 FILLER_0_6_29
*1439 FILLER_0_6_3
*1440 FILLER_0_6_301
*1441 FILLER_0_6_307
*1442 FILLER_0_6_309
*1443 FILLER_0_6_321
*1444 FILLER_0_6_333
*1445 FILLER_0_6_345
*1446 FILLER_0_6_41
*1447 FILLER_0_6_53
*1448 FILLER_0_6_65
*1449 FILLER_0_6_77
*1450 FILLER_0_6_83
*1451 FILLER_0_6_85
*1452 FILLER_0_6_97
*1453 FILLER_0_7_105
*1454 FILLER_0_7_111
*1455 FILLER_0_7_113
*1456 FILLER_0_7_125
*1457 FILLER_0_7_137
*1458 FILLER_0_7_149
*1459 FILLER_0_7_15
*1460 FILLER_0_7_161
*1461 FILLER_0_7_167
*1462 FILLER_0_7_169
*1463 FILLER_0_7_181
*1464 FILLER_0_7_193
*1465 FILLER_0_7_205
*1466 FILLER_0_7_217
*1467 FILLER_0_7_223
*1468 FILLER_0_7_225
*1469 FILLER_0_7_237
*1470 FILLER_0_7_249
*1471 FILLER_0_7_261
*1472 FILLER_0_7_27
*1473 FILLER_0_7_273
*1474 FILLER_0_7_279
*1475 FILLER_0_7_281
*1476 FILLER_0_7_293
*1477 FILLER_0_7_3
*1478 FILLER_0_7_305
*1479 FILLER_0_7_317
*1480 FILLER_0_7_329
*1481 FILLER_0_7_335
*1482 FILLER_0_7_337
*1483 FILLER_0_7_349
*1484 FILLER_0_7_39
*1485 FILLER_0_7_51
*1486 FILLER_0_7_55