*SPEF "ieee 1481-1999"
*DESIGN "tt_um_ccollatz_SergioOliveros"
*DATE "11:11:11 Fri 11 11, 1111"
*VENDOR "OpenRCX"
*PROGRAM "Parallel Extraction"
*VERSION "1.0"
*DESIGN_FLOW "NAME_SCOPE LOCAL" "PIN_CAP NONE"
*DIVIDER /
*DELIMITER :
*BUS_DELIMITER []
*T_UNIT 1 NS
*C_UNIT 1 PF
*R_UNIT 1 OHM
*L_UNIT 1 HENRY

*NAME_MAP
*3 clk
*4 ena
*5 rst_n
*6 ui_in[0]
*7 ui_in[1]
*8 ui_in[2]
*9 ui_in[3]
*10 ui_in[4]
*11 ui_in[5]
*12 ui_in[6]
*13 ui_in[7]
*14 uio_in[0]
*15 uio_in[1]
*16 uio_in[2]
*17 uio_in[3]
*18 uio_in[4]
*19 uio_in[5]
*20 uio_in[6]
*21 uio_in[7]
*22 net17
*23 net18
*24 net19
*25 net20
*26 net21
*27 net22
*28 net23
*29 net24
*30 uio_out[0]
*31 uio_out[1]
*32 uio_out[2]
*33 uio_out[3]
*34 uio_out[4]
*35 uio_out[5]
*36 uio_out[6]
*37 uio_out[7]
*38 uo_out[0]
*39 net10
*40 net11
*41 net12
*42 net13
*43 net14
*44 net15
*45 net16
*46 _000_
*47 _001_
*48 _002_
*49 _003_
*50 _004_
*51 _005_
*52 _006_
*53 _007_
*54 _008_
*55 _009_
*56 _010_
*57 _011_
*58 _012_
*59 _013_
*60 _014_
*61 _015_
*62 _016_
*63 _017_
*64 _018_
*65 _019_
*66 _020_
*67 _021_
*68 _022_
*69 _023_
*70 _024_
*71 _025_
*72 _026_
*73 _027_
*74 _028_
*75 _029_
*76 _030_
*77 _031_
*78 _032_
*79 _033_
*80 _034_
*81 _035_
*82 _036_
*83 _037_
*84 _038_
*85 _039_
*86 _040_
*87 _041_
*88 _042_
*89 _043_
*90 _044_
*91 _045_
*92 _046_
*93 _047_
*94 _048_
*95 _049_
*96 _050_
*97 _051_
*98 _052_
*99 _053_
*100 _054_
*101 _055_
*102 _056_
*103 _057_
*104 _058_
*105 _059_
*106 _060_
*107 _061_
*108 _062_
*109 _063_
*110 _064_
*111 _065_
*112 _066_
*113 _067_
*114 _068_
*115 _069_
*116 _070_
*117 _071_
*118 _072_
*119 _073_
*120 _074_
*121 _075_
*122 _076_
*123 _077_
*124 _078_
*125 _079_
*126 _080_
*127 _081_
*128 _082_
*129 _083_
*130 _084_
*131 _085_
*132 _086_
*133 _087_
*134 busy
*135 clknet_0_clk
*136 clknet_1_0__leaf_clk
*137 clknet_1_1__leaf_clk
*138 futuro\[0\]
*139 futuro\[1\]
*140 n\[0\]
*141 n\[1\]
*142 n\[2\]
*143 n\[3\]
*144 n\[4\]
*145 n\[5\]
*146 n\[6\]
*147 n\[7\]
*148 net1
*149 net2
*150 net25
*151 net26
*152 net27
*153 net28
*154 net29
*155 net3
*156 net30
*157 net31
*158 net32
*159 net4
*160 net5
*161 net6
*162 net7
*163 net8
*164 net9
*165 presente\[0\]
*166 presente\[1\]
*167 FILLER_0_0_109
*168 FILLER_0_0_113
*169 FILLER_0_0_125
*170 FILLER_0_0_137
*171 FILLER_0_0_141
*172 FILLER_0_0_15
*173 FILLER_0_0_153
*174 FILLER_0_0_165
*175 FILLER_0_0_169
*176 FILLER_0_0_181
*177 FILLER_0_0_193
*178 FILLER_0_0_197
*179 FILLER_0_0_209
*180 FILLER_0_0_221
*181 FILLER_0_0_225
*182 FILLER_0_0_237
*183 FILLER_0_0_249
*184 FILLER_0_0_253
*185 FILLER_0_0_265
*186 FILLER_0_0_27
*187 FILLER_0_0_277
*188 FILLER_0_0_281
*189 FILLER_0_0_29
*190 FILLER_0_0_293
*191 FILLER_0_0_3
*192 FILLER_0_0_305
*193 FILLER_0_0_309
*194 FILLER_0_0_321
*195 FILLER_0_0_333
*196 FILLER_0_0_337
*197 FILLER_0_0_349
*198 FILLER_0_0_41
*199 FILLER_0_0_53
*200 FILLER_0_0_57
*201 FILLER_0_0_69
*202 FILLER_0_0_81
*203 FILLER_0_0_85
*204 FILLER_0_0_97
*205 FILLER_0_10_109
*206 FILLER_0_10_121
*207 FILLER_0_10_133
*208 FILLER_0_10_139
*209 FILLER_0_10_141
*210 FILLER_0_10_15
*211 FILLER_0_10_153
*212 FILLER_0_10_165
*213 FILLER_0_10_177
*214 FILLER_0_10_189
*215 FILLER_0_10_195
*216 FILLER_0_10_197
*217 FILLER_0_10_209
*218 FILLER_0_10_221
*219 FILLER_0_10_233
*220 FILLER_0_10_245
*221 FILLER_0_10_251
*222 FILLER_0_10_253
*223 FILLER_0_10_265
*224 FILLER_0_10_27
*225 FILLER_0_10_277
*226 FILLER_0_10_289
*227 FILLER_0_10_29
*228 FILLER_0_10_3
*229 FILLER_0_10_301
*230 FILLER_0_10_307
*231 FILLER_0_10_309
*232 FILLER_0_10_321
*233 FILLER_0_10_333
*234 FILLER_0_10_345
*235 FILLER_0_10_41
*236 FILLER_0_10_53
*237 FILLER_0_10_65
*238 FILLER_0_10_77
*239 FILLER_0_10_83
*240 FILLER_0_10_85
*241 FILLER_0_10_97
*242 FILLER_0_11_105
*243 FILLER_0_11_111
*244 FILLER_0_11_113
*245 FILLER_0_11_125
*246 FILLER_0_11_137
*247 FILLER_0_11_149
*248 FILLER_0_11_15
*249 FILLER_0_11_161
*250 FILLER_0_11_167
*251 FILLER_0_11_169
*252 FILLER_0_11_181
*253 FILLER_0_11_193
*254 FILLER_0_11_205
*255 FILLER_0_11_217
*256 FILLER_0_11_223
*257 FILLER_0_11_225
*258 FILLER_0_11_237
*259 FILLER_0_11_249
*260 FILLER_0_11_261
*261 FILLER_0_11_27
*262 FILLER_0_11_273
*263 FILLER_0_11_279
*264 FILLER_0_11_281
*265 FILLER_0_11_293
*266 FILLER_0_11_3
*267 FILLER_0_11_305
*268 FILLER_0_11_317
*269 FILLER_0_11_329
*270 FILLER_0_11_335
*271 FILLER_0_11_337
*272 FILLER_0_11_349
*273 FILLER_0_11_39
*274 FILLER_0_11_51
*275 FILLER_0_11_55
*276 FILLER_0_11_57
*277 FILLER_0_11_69
*278 FILLER_0_11_81
*279 FILLER_0_11_93
*280 FILLER_0_12_109
*281 FILLER_0_12_121
*282 FILLER_0_12_133
*283 FILLER_0_12_139
*284 FILLER_0_12_141
*285 FILLER_0_12_15
*286 FILLER_0_12_153
*287 FILLER_0_12_165
*288 FILLER_0_12_177
*289 FILLER_0_12_189
*290 FILLER_0_12_195
*291 FILLER_0_12_197
*292 FILLER_0_12_209
*293 FILLER_0_12_221
*294 FILLER_0_12_233
*295 FILLER_0_12_245
*296 FILLER_0_12_251
*297 FILLER_0_12_253
*298 FILLER_0_12_265
*299 FILLER_0_12_27
*300 FILLER_0_12_277
*301 FILLER_0_12_289
*302 FILLER_0_12_29
*303 FILLER_0_12_3
*304 FILLER_0_12_301
*305 FILLER_0_12_307
*306 FILLER_0_12_309
*307 FILLER_0_12_321
*308 FILLER_0_12_333
*309 FILLER_0_12_345
*310 FILLER_0_12_41
*311 FILLER_0_12_53
*312 FILLER_0_12_65
*313 FILLER_0_12_77
*314 FILLER_0_12_83
*315 FILLER_0_12_85
*316 FILLER_0_12_97
*317 FILLER_0_13_105
*318 FILLER_0_13_111
*319 FILLER_0_13_113
*320 FILLER_0_13_125
*321 FILLER_0_13_137
*322 FILLER_0_13_149
*323 FILLER_0_13_15
*324 FILLER_0_13_161
*325 FILLER_0_13_167
*326 FILLER_0_13_169
*327 FILLER_0_13_181
*328 FILLER_0_13_193
*329 FILLER_0_13_205
*330 FILLER_0_13_217
*331 FILLER_0_13_223
*332 FILLER_0_13_225
*333 FILLER_0_13_237
*334 FILLER_0_13_249
*335 FILLER_0_13_261
*336 FILLER_0_13_27
*337 FILLER_0_13_273
*338 FILLER_0_13_279
*339 FILLER_0_13_281
*340 FILLER_0_13_293
*341 FILLER_0_13_3
*342 FILLER_0_13_305
*343 FILLER_0_13_317
*344 FILLER_0_13_329
*345 FILLER_0_13_335
*346 FILLER_0_13_337
*347 FILLER_0_13_349
*348 FILLER_0_13_39
*349 FILLER_0_13_51
*350 FILLER_0_13_55
*351 FILLER_0_13_57
*352 FILLER_0_13_69
*353 FILLER_0_13_81
*354 FILLER_0_13_93
*355 FILLER_0_14_109
*356 FILLER_0_14_121
*357 FILLER_0_14_133
*358 FILLER_0_14_139
*359 FILLER_0_14_141
*360 FILLER_0_14_15
*361 FILLER_0_14_153
*362 FILLER_0_14_165
*363 FILLER_0_14_177
*364 FILLER_0_14_189
*365 FILLER_0_14_195
*366 FILLER_0_14_197
*367 FILLER_0_14_209
*368 FILLER_0_14_221
*369 FILLER_0_14_233
*370 FILLER_0_14_245
*371 FILLER_0_14_251
*372 FILLER_0_14_253
*373 FILLER_0_14_265
*374 FILLER_0_14_27
*375 FILLER_0_14_277
*376 FILLER_0_14_289
*377 FILLER_0_14_29
*378 FILLER_0_14_3
*379 FILLER_0_14_301
*380 FILLER_0_14_307
*381 FILLER_0_14_309
*382 FILLER_0_14_321
*383 FILLER_0_14_333
*384 FILLER_0_14_345
*385 FILLER_0_14_41
*386 FILLER_0_14_53
*387 FILLER_0_14_65
*388 FILLER_0_14_77
*389 FILLER_0_14_83
*390 FILLER_0_14_85
*391 FILLER_0_14_97
*392 FILLER_0_15_105
*393 FILLER_0_15_111
*394 FILLER_0_15_113
*395 FILLER_0_15_125
*396 FILLER_0_15_137
*397 FILLER_0_15_149
*398 FILLER_0_15_15
*399 FILLER_0_15_161
*400 FILLER_0_15_167
*401 FILLER_0_15_169
*402 FILLER_0_15_181
*403 FILLER_0_15_193
*404 FILLER_0_15_205
*405 FILLER_0_15_217
*406 FILLER_0_15_223
*407 FILLER_0_15_225
*408 FILLER_0_15_237
*409 FILLER_0_15_249
*410 FILLER_0_15_261
*411 FILLER_0_15_27
*412 FILLER_0_15_273
*413 FILLER_0_15_279
*414 FILLER_0_15_281
*415 FILLER_0_15_293
*416 FILLER_0_15_3
*417 FILLER_0_15_305
*418 FILLER_0_15_317
*419 FILLER_0_15_329
*420 FILLER_0_15_335
*421 FILLER_0_15_337
*422 FILLER_0_15_349
*423 FILLER_0_15_39
*424 FILLER_0_15_51
*425 FILLER_0_15_55
*426 FILLER_0_15_57
*427 FILLER_0_15_69
*428 FILLER_0_15_81
*429 FILLER_0_15_93
*430 FILLER_0_16_109
*431 FILLER_0_16_121
*432 FILLER_0_16_133
*433 FILLER_0_16_139
*434 FILLER_0_16_141
*435 FILLER_0_16_15
*436 FILLER_0_16_153
*437 FILLER_0_16_165
*438 FILLER_0_16_177
*439 FILLER_0_16_189
*440 FILLER_0_16_195
*441 FILLER_0_16_197
*442 FILLER_0_16_209
*443 FILLER_0_16_221
*444 FILLER_0_16_233
*445 FILLER_0_16_245
*446 FILLER_0_16_251
*447 FILLER_0_16_253
*448 FILLER_0_16_265
*449 FILLER_0_16_27
*450 FILLER_0_16_277
*451 FILLER_0_16_289
*452 FILLER_0_16_29
*453 FILLER_0_16_3
*454 FILLER_0_16_301
*455 FILLER_0_16_307
*456 FILLER_0_16_309
*457 FILLER_0_16_321
*458 FILLER_0_16_333
*459 FILLER_0_16_345
*460 FILLER_0_16_41
*461 FILLER_0_16_53
*462 FILLER_0_16_65
*463 FILLER_0_16_77
*464 FILLER_0_16_83
*465 FILLER_0_16_85
*466 FILLER_0_16_97
*467 FILLER_0_17_105
*468 FILLER_0_17_111
*469 FILLER_0_17_113
*470 FILLER_0_17_125
*471 FILLER_0_17_137
*472 FILLER_0_17_149
*473 FILLER_0_17_15
*474 FILLER_0_17_161
*475 FILLER_0_17_167
*476 FILLER_0_17_169
*477 FILLER_0_17_181
*478 FILLER_0_17_193
*479 FILLER_0_17_205
*480 FILLER_0_17_217
*481 FILLER_0_17_223
*482 FILLER_0_17_225
*483 FILLER_0_17_237
*484 FILLER_0_17_249
*485 FILLER_0_17_261
*486 FILLER_0_17_27
*487 FILLER_0_17_273
*488 FILLER_0_17_279
*489 FILLER_0_17_281
*490 FILLER_0_17_293
*491 FILLER_0_17_3
*492 FILLER_0_17_305
*493 FILLER_0_17_317
*494 FILLER_0_17_329
*495 FILLER_0_17_335
*496 FILLER_0_17_337
*497 FILLER_0_17_349
*498 FILLER_0_17_39
*499 FILLER_0_17_51
*500 FILLER_0_17_55
*501 FILLER_0_17_57
*502 FILLER_0_17_69
*503 FILLER_0_17_81
*504 FILLER_0_17_93
*505 FILLER_0_18_109
*506 FILLER_0_18_121
*507 FILLER_0_18_133
*508 FILLER_0_18_139
*509 FILLER_0_18_141
*510 FILLER_0_18_15
*511 FILLER_0_18_153
*512 FILLER_0_18_165
*513 FILLER_0_18_177
*514 FILLER_0_18_189
*515 FILLER_0_18_195
*516 FILLER_0_18_197
*517 FILLER_0_18_209
*518 FILLER_0_18_221
*519 FILLER_0_18_233
*520 FILLER_0_18_245
*521 FILLER_0_18_251
*522 FILLER_0_18_253
*523 FILLER_0_18_265
*524 FILLER_0_18_27
*525 FILLER_0_18_277
*526 FILLER_0_18_289
*527 FILLER_0_18_29
*528 FILLER_0_18_3
*529 FILLER_0_18_301
*530 FILLER_0_18_307
*531 FILLER_0_18_309
*532 FILLER_0_18_321
*533 FILLER_0_18_333
*534 FILLER_0_18_345
*535 FILLER_0_18_41
*536 FILLER_0_18_53
*537 FILLER_0_18_65
*538 FILLER_0_18_77
*539 FILLER_0_18_83
*540 FILLER_0_18_85
*541 FILLER_0_18_97
*542 FILLER_0_19_105
*543 FILLER_0_19_111
*544 FILLER_0_19_113
*545 FILLER_0_19_125
*546 FILLER_0_19_137
*547 FILLER_0_19_149
*548 FILLER_0_19_15
*549 FILLER_0_19_161
*550 FILLER_0_19_167
*551 FILLER_0_19_169
*552 FILLER_0_19_181
*553 FILLER_0_19_193
*554 FILLER_0_19_205
*555 FILLER_0_19_217
*556 FILLER_0_19_223
*557 FILLER_0_19_225
*558 FILLER_0_19_237
*559 FILLER_0_19_249
*560 FILLER_0_19_261
*561 FILLER_0_19_27
*562 FILLER_0_19_273
*563 FILLER_0_19_279
*564 FILLER_0_19_281
*565 FILLER_0_19_293
*566 FILLER_0_19_3
*567 FILLER_0_19_305
*568 FILLER_0_19_317
*569 FILLER_0_19_329
*570 FILLER_0_19_335
*571 FILLER_0_19_337
*572 FILLER_0_19_349
*573 FILLER_0_19_39
*574 FILLER_0_19_51
*575 FILLER_0_19_55
*576 FILLER_0_19_57
*577 FILLER_0_19_69
*578 FILLER_0_19_81
*579 FILLER_0_19_93
*580 FILLER_0_1_105
*581 FILLER_0_1_111
*582 FILLER_0_1_113
*583 FILLER_0_1_125
*584 FILLER_0_1_137
*585 FILLER_0_1_149
*586 FILLER_0_1_15
*587 FILLER_0_1_161
*588 FILLER_0_1_167
*589 FILLER_0_1_169
*590 FILLER_0_1_181
*591 FILLER_0_1_193
*592 FILLER_0_1_205
*593 FILLER_0_1_217
*594 FILLER_0_1_223
*595 FILLER_0_1_225
*596 FILLER_0_1_237
*597 FILLER_0_1_249
*598 FILLER_0_1_261
*599 FILLER_0_1_27
*600 FILLER_0_1_273
*601 FILLER_0_1_279
*602 FILLER_0_1_281
*603 FILLER_0_1_293
*604 FILLER_0_1_3
*605 FILLER_0_1_305
*606 FILLER_0_1_317
*607 FILLER_0_1_329
*608 FILLER_0_1_335
*609 FILLER_0_1_337
*610 FILLER_0_1_349
*611 FILLER_0_1_39
*612 FILLER_0_1_51
*613 FILLER_0_1_55
*614 FILLER_0_1_57
*615 FILLER_0_1_69
*616 FILLER_0_1_81
*617 FILLER_0_1_93
*618 FILLER_0_20_109
*619 FILLER_0_20_121
*620 FILLER_0_20_133
*621 FILLER_0_20_139
*622 FILLER_0_20_141
*623 FILLER_0_20_15
*624 FILLER_0_20_153
*625 FILLER_0_20_165
*626 FILLER_0_20_177
*627 FILLER_0_20_189
*628 FILLER_0_20_195
*629 FILLER_0_20_197
*630 FILLER_0_20_209
*631 FILLER_0_20_221
*632 FILLER_0_20_233
*633 FILLER_0_20_245
*634 FILLER_0_20_251
*635 FILLER_0_20_253
*636 FILLER_0_20_265
*637 FILLER_0_20_27
*638 FILLER_0_20_277
*639 FILLER_0_20_289
*640 FILLER_0_20_29
*641 FILLER_0_20_3
*642 FILLER_0_20_301
*643 FILLER_0_20_307
*644 FILLER_0_20_309
*645 FILLER_0_20_321
*646 FILLER_0_20_333
*647 FILLER_0_20_345
*648 FILLER_0_20_41
*649 FILLER_0_20_53
*650 FILLER_0_20_65
*651 FILLER_0_20_77
*652 FILLER_0_20_83
*653 FILLER_0_20_85
*654 FILLER_0_20_97
*655 FILLER_0_21_105
*656 FILLER_0_21_111
*657 FILLER_0_21_113
*658 FILLER_0_21_125
*659 FILLER_0_21_137
*660 FILLER_0_21_149
*661 FILLER_0_21_15
*662 FILLER_0_21_161
*663 FILLER_0_21_167
*664 FILLER_0_21_169
*665 FILLER_0_21_181
*666 FILLER_0_21_193
*667 FILLER_0_21_205
*668 FILLER_0_21_217
*669 FILLER_0_21_223
*670 FILLER_0_21_225
*671 FILLER_0_21_237
*672 FILLER_0_21_249
*673 FILLER_0_21_261
*674 FILLER_0_21_27
*675 FILLER_0_21_273
*676 FILLER_0_21_279
*677 FILLER_0_21_281
*678 FILLER_0_21_293
*679 FILLER_0_21_3
*680 FILLER_0_21_305
*681 FILLER_0_21_317
*682 FILLER_0_21_329
*683 FILLER_0_21_335
*684 FILLER_0_21_337
*685 FILLER_0_21_349
*686 FILLER_0_21_39
*687 FILLER_0_21_51
*688 FILLER_0_21_55
*689 FILLER_0_21_57
*690 FILLER_0_21_69
*691 FILLER_0_21_81
*692 FILLER_0_21_93
*693 FILLER_0_22_109
*694 FILLER_0_22_121
*695 FILLER_0_22_133
*696 FILLER_0_22_139
*697 FILLER_0_22_141
*698 FILLER_0_22_15
*699 FILLER_0_22_153
*700 FILLER_0_22_165
*701 FILLER_0_22_177
*702 FILLER_0_22_189
*703 FILLER_0_22_195
*704 FILLER_0_22_197
*705 FILLER_0_22_209
*706 FILLER_0_22_221
*707 FILLER_0_22_233
*708 FILLER_0_22_245
*709 FILLER_0_22_251
*710 FILLER_0_22_253
*711 FILLER_0_22_265
*712 FILLER_0_22_27
*713 FILLER_0_22_277
*714 FILLER_0_22_289
*715 FILLER_0_22_29
*716 FILLER_0_22_3
*717 FILLER_0_22_301
*718 FILLER_0_22_307
*719 FILLER_0_22_309
*720 FILLER_0_22_321
*721 FILLER_0_22_333
*722 FILLER_0_22_345
*723 FILLER_0_22_41
*724 FILLER_0_22_53
*725 FILLER_0_22_65
*726 FILLER_0_22_77
*727 FILLER_0_22_83
*728 FILLER_0_22_85
*729 FILLER_0_22_97
*730 FILLER_0_23_105
*731 FILLER_0_23_111
*732 FILLER_0_23_113
*733 FILLER_0_23_125
*734 FILLER_0_23_137
*735 FILLER_0_23_149
*736 FILLER_0_23_15
*737 FILLER_0_23_161
*738 FILLER_0_23_167
*739 FILLER_0_23_169
*740 FILLER_0_23_181
*741 FILLER_0_23_193
*742 FILLER_0_23_205
*743 FILLER_0_23_217
*744 FILLER_0_23_223
*745 FILLER_0_23_225
*746 FILLER_0_23_237
*747 FILLER_0_23_249
*748 FILLER_0_23_261
*749 FILLER_0_23_27
*750 FILLER_0_23_273
*751 FILLER_0_23_279
*752 FILLER_0_23_281
*753 FILLER_0_23_293
*754 FILLER_0_23_3
*755 FILLER_0_23_305
*756 FILLER_0_23_317
*757 FILLER_0_23_329
*758 FILLER_0_23_335
*759 FILLER_0_23_337
*760 FILLER_0_23_349
*761 FILLER_0_23_39
*762 FILLER_0_23_51
*763 FILLER_0_23_55
*764 FILLER_0_23_57
*765 FILLER_0_23_69
*766 FILLER_0_23_81
*767 FILLER_0_23_93
*768 FILLER_0_24_109
*769 FILLER_0_24_121
*770 FILLER_0_24_133
*771 FILLER_0_24_139
*772 FILLER_0_24_141
*773 FILLER_0_24_15
*774 FILLER_0_24_153
*775 FILLER_0_24_165
*776 FILLER_0_24_177
*777 FILLER_0_24_189
*778 FILLER_0_24_195
*779 FILLER_0_24_197
*780 FILLER_0_24_209
*781 FILLER_0_24_221
*782 FILLER_0_24_233
*783 FILLER_0_24_245
*784 FILLER_0_24_251
*785 FILLER_0_24_253
*786 FILLER_0_24_265
*787 FILLER_0_24_27
*788 FILLER_0_24_277
*789 FILLER_0_24_289
*790 FILLER_0_24_29
*791 FILLER_0_24_3
*792 FILLER_0_24_301
*793 FILLER_0_24_307
*794 FILLER_0_24_309
*795 FILLER_0_24_321
*796 FILLER_0_24_333
*797 FILLER_0_24_345
*798 FILLER_0_24_41
*799 FILLER_0_24_53
*800 FILLER_0_24_65
*801 FILLER_0_24_77
*802 FILLER_0_24_83
*803 FILLER_0_24_85
*804 FILLER_0_24_97
*805 FILLER_0_25_105
*806 FILLER_0_25_111
*807 FILLER_0_25_113
*808 FILLER_0_25_125
*809 FILLER_0_25_137
*810 FILLER_0_25_149
*811 FILLER_0_25_15
*812 FILLER_0_25_161
*813 FILLER_0_25_167
*814 FILLER_0_25_169
*815 FILLER_0_25_181
*816 FILLER_0_25_193
*817 FILLER_0_25_205
*818 FILLER_0_25_217
*819 FILLER_0_25_223
*820 FILLER_0_25_225
*821 FILLER_0_25_237
*822 FILLER_0_25_249
*823 FILLER_0_25_261
*824 FILLER_0_25_27
*825 FILLER_0_25_273
*826 FILLER_0_25_279
*827 FILLER_0_25_281
*828 FILLER_0_25_293
*829 FILLER_0_25_3
*830 FILLER_0_25_305
*831 FILLER_0_25_317
*832 FILLER_0_25_329
*833 FILLER_0_25_335
*834 FILLER_0_25_337
*835 FILLER_0_25_349
*836 FILLER_0_25_39
*837 FILLER_0_25_51
*838 FILLER_0_25_55
*839 FILLER_0_25_57
*840 FILLER_0_25_69
*841 FILLER_0_25_81
*842 FILLER_0_25_93
*843 FILLER_0_26_109
*844 FILLER_0_26_121
*845 FILLER_0_26_133
*846 FILLER_0_26_139
*847 FILLER_0_26_141
*848 FILLER_0_26_15
*849 FILLER_0_26_153
*850 FILLER_0_26_165
*851 FILLER_0_26_177
*852 FILLER_0_26_189
*853 FILLER_0_26_195
*854 FILLER_0_26_197
*855 FILLER_0_26_209
*856 FILLER_0_26_221
*857 FILLER_0_26_233
*858 FILLER_0_26_245
*859 FILLER_0_26_251
*860 FILLER_0_26_253
*861 FILLER_0_26_265
*862 FILLER_0_26_27
*863 FILLER_0_26_277
*864 FILLER_0_26_289
*865 FILLER_0_26_29
*866 FILLER_0_26_3
*867 FILLER_0_26_301
*868 FILLER_0_26_307
*869 FILLER_0_26_309
*870 FILLER_0_26_321
*871 FILLER_0_26_333
*872 FILLER_0_26_345
*873 FILLER_0_26_41
*874 FILLER_0_26_53
*875 FILLER_0_26_65
*876 FILLER_0_26_77
*877 FILLER_0_26_83
*878 FILLER_0_26_85
*879 FILLER_0_26_97
*880 FILLER_0_27_105
*881 FILLER_0_27_111
*882 FILLER_0_27_113
*883 FILLER_0_27_125
*884 FILLER_0_27_137
*885 FILLER_0_27_149
*886 FILLER_0_27_15
*887 FILLER_0_27_161
*888 FILLER_0_27_167
*889 FILLER_0_27_169
*890 FILLER_0_27_181
*891 FILLER_0_27_193
*892 FILLER_0_27_205
*893 FILLER_0_27_217
*894 FILLER_0_27_223
*895 FILLER_0_27_225
*896 FILLER_0_27_237
*897 FILLER_0_27_249
*898 FILLER_0_27_261
*899 FILLER_0_27_27
*900 FILLER_0_27_273
*901 FILLER_0_27_279
*902 FILLER_0_27_281
*903 FILLER_0_27_293
*904 FILLER_0_27_3
*905 FILLER_0_27_305
*906 FILLER_0_27_317
*907 FILLER_0_27_329
*908 FILLER_0_27_335
*909 FILLER_0_27_337
*910 FILLER_0_27_349
*911 FILLER_0_27_39
*912 FILLER_0_27_51
*913 FILLER_0_27_55
*914 FILLER_0_27_57
*915 FILLER_0_27_69
*916 FILLER_0_27_81
*917 FILLER_0_27_93
*918 FILLER_0_28_109
*919 FILLER_0_28_121
*920 FILLER_0_28_133
*921 FILLER_0_28_139
*922 FILLER_0_28_141
*923 FILLER_0_28_15
*924 FILLER_0_28_153
*925 FILLER_0_28_165
*926 FILLER_0_28_177
*927 FILLER_0_28_189
*928 FILLER_0_28_195
*929 FILLER_0_28_197
*930 FILLER_0_28_209
*931 FILLER_0_28_221
*932 FILLER_0_28_233
*933 FILLER_0_28_245
*934 FILLER_0_28_251
*935 FILLER_0_28_253
*936 FILLER_0_28_265
*937 FILLER_0_28_27
*938 FILLER_0_28_277
*939 FILLER_0_28_289
*940 FILLER_0_28_29
*941 FILLER_0_28_3
*942 FILLER_0_28_301
*943 FILLER_0_28_307
*944 FILLER_0_28_309
*945 FILLER_0_28_321
*946 FILLER_0_28_333
*947 FILLER_0_28_345
*948 FILLER_0_28_41
*949 FILLER_0_28_53
*950 FILLER_0_28_65
*951 FILLER_0_28_77
*952 FILLER_0_28_83
*953 FILLER_0_28_85
*954 FILLER_0_28_97
*955 FILLER_0_29_105
*956 FILLER_0_29_111
*957 FILLER_0_29_113
*958 FILLER_0_29_125
*959 FILLER_0_29_137
*960 FILLER_0_29_149
*961 FILLER_0_29_15
*962 FILLER_0_29_161
*963 FILLER_0_29_167
*964 FILLER_0_29_169
*965 FILLER_0_29_181
*966 FILLER_0_29_193
*967 FILLER_0_29_205
*968 FILLER_0_29_217
*969 FILLER_0_29_223
*970 FILLER_0_29_225
*971 FILLER_0_29_237
*972 FILLER_0_29_249
*973 FILLER_0_29_261
*974 FILLER_0_29_27
*975 FILLER_0_29_273
*976 FILLER_0_29_279
*977 FILLER_0_29_281
*978 FILLER_0_29_293
*979 FILLER_0_29_3
*980 FILLER_0_29_305
*981 FILLER_0_29_317
*982 FILLER_0_29_329
*983 FILLER_0_29_335
*984 FILLER_0_29_337
*985 FILLER_0_29_349
*986 FILLER_0_29_39
*987 FILLER_0_29_51
*988 FILLER_0_29_55
*989 FILLER_0_29_57
*990 FILLER_0_29_69
*991 FILLER_0_29_81
*992 FILLER_0_29_93
*993 FILLER_0_2_109
*994 FILLER_0_2_121
*995 FILLER_0_2_133
*996 FILLER_0_2_139
*997 FILLER_0_2_141
*998 FILLER_0_2_15
*999 FILLER_0_2_153
*1000 FILLER_0_2_165
*1001 FILLER_0_2_177
*1002 FILLER_0_2_189
*1003 FILLER_0_2_195
*1004 FILLER_0_2_197
*1005 FILLER_0_2_209
*1006 FILLER_0_2_221
*1007 FILLER_0_2_233
*1008 FILLER_0_2_245
*1009 FILLER_0_2_251
*1010 FILLER_0_2_253
*1011 FILLER_0_2_265
*1012 FILLER_0_2_27
*1013 FILLER_0_2_277
*1014 FILLER_0_2_289
*1015 FILLER_0_2_29
*1016 FILLER_0_2_3
*1017 FILLER_0_2_301
*1018 FILLER_0_2_307
*1019 FILLER_0_2_309
*1020 FILLER_0_2_321
*1021 FILLER_0_2_333
*1022 FILLER_0_2_345
*1023 FILLER_0_2_41
*1024 FILLER_0_2_53
*1025 FILLER_0_2_65
*1026 FILLER_0_2_77
*1027 FILLER_0_2_83
*1028 FILLER_0_2_85
*1029 FILLER_0_2_97
*1030 FILLER_0_30_109
*1031 FILLER_0_30_121
*1032 FILLER_0_30_133
*1033 FILLER_0_30_139
*1034 FILLER_0_30_141
*1035 FILLER_0_30_15
*1036 FILLER_0_30_153
*1037 FILLER_0_30_165
*1038 FILLER_0_30_177
*1039 FILLER_0_30_189
*1040 FILLER_0_30_195
*1041 FILLER_0_30_197
*1042 FILLER_0_30_209
*1043 FILLER_0_30_221
*1044 FILLER_0_30_233
*1045 FILLER_0_30_245
*1046 FILLER_0_30_251
*1047 FILLER_0_30_253
*1048 FILLER_0_30_265
*1049 FILLER_0_30_27
*1050 FILLER_0_30_277
*1051 FILLER_0_30_289
*1052 FILLER_0_30_29
*1053 FILLER_0_30_3
*1054 FILLER_0_30_301
*1055 FILLER_0_30_307
*1056 FILLER_0_30_309
*1057 FILLER_0_30_321
*1058 FILLER_0_30_333
*1059 FILLER_0_30_345
*1060 FILLER_0_30_41
*1061 FILLER_0_30_53
*1062 FILLER_0_30_65
*1063 FILLER_0_30_77
*1064 FILLER_0_30_83
*1065 FILLER_0_30_85
*1066 FILLER_0_30_97
*1067 FILLER_0_31_105
*1068 FILLER_0_31_111
*1069 FILLER_0_31_113
*1070 FILLER_0_31_125
*1071 FILLER_0_31_137
*1072 FILLER_0_31_149
*1073 FILLER_0_31_15
*1074 FILLER_0_31_161
*1075 FILLER_0_31_167
*1076 FILLER_0_31_169
*1077 FILLER_0_31_181
*1078 FILLER_0_31_193
*1079 FILLER_0_31_205
*1080 FILLER_0_31_217
*1081 FILLER_0_31_223
*1082 FILLER_0_31_225
*1083 FILLER_0_31_229
*1084 FILLER_0_31_241
*1085 FILLER_0_31_259
*1086 FILLER_0_31_27
*1087 FILLER_0_31_271
*1088 FILLER_0_31_279
*1089 FILLER_0_31_281
*1090 FILLER_0_31_287
*1091 FILLER_0_31_299
*1092 FILLER_0_31_3
*1093 FILLER_0_31_311
*1094 FILLER_0_31_323
*1095 FILLER_0_31_335
*1096 FILLER_0_31_337
*1097 FILLER_0_31_349
*1098 FILLER_0_31_39
*1099 FILLER_0_31_51
*1100 FILLER_0_31_55
*1101 FILLER_0_31_57
*1102 FILLER_0_31_69
*1103 FILLER_0_31_81
*1104 FILLER_0_31_93
*1105 FILLER_0_32_109
*1106 FILLER_0_32_121
*1107 FILLER_0_32_133
*1108 FILLER_0_32_139
*1109 FILLER_0_32_141
*1110 FILLER_0_32_15
*1111 FILLER_0_32_153
*1112 FILLER_0_32_165
*1113 FILLER_0_32_177
*1114 FILLER_0_32_183
*1115 FILLER_0_32_187
*1116 FILLER_0_32_195
*1117 FILLER_0_32_197
*1118 FILLER_0_32_217
*1119 FILLER_0_32_221
*1120 FILLER_0_32_239
*1121 FILLER_0_32_251
*1122 FILLER_0_32_253
*1123 FILLER_0_32_27
*1124 FILLER_0_32_271
*1125 FILLER_0_32_279
*1126 FILLER_0_32_29
*1127 FILLER_0_32_290
*1128 FILLER_0_32_3
*1129 FILLER_0_32_307
*1130 FILLER_0_32_325
*1131 FILLER_0_32_337
*1132 FILLER_0_32_349
*1133 FILLER_0_32_41
*1134 FILLER_0_32_53
*1135 FILLER_0_32_65
*1136 FILLER_0_32_77
*1137 FILLER_0_32_83
*1138 FILLER_0_32_85
*1139 FILLER_0_32_97
*1140 FILLER_0_33_109
*1141 FILLER_0_33_113
*1142 FILLER_0_33_125
*1143 FILLER_0_33_137
*1144 FILLER_0_33_149
*1145 FILLER_0_33_15
*1146 FILLER_0_33_161
*1147 FILLER_0_33_167
*1148 FILLER_0_33_169
*1149 FILLER_0_33_177
*1150 FILLER_0_33_196
*1151 FILLER_0_33_220
*1152 FILLER_0_33_225
*1153 FILLER_0_33_257
*1154 FILLER_0_33_269
*1155 FILLER_0_33_27
*1156 FILLER_0_33_275
*1157 FILLER_0_33_289
*1158 FILLER_0_33_3
*1159 FILLER_0_33_301
*1160 FILLER_0_33_309
*1161 FILLER_0_33_313
*1162 FILLER_0_33_325
*1163 FILLER_0_33_333
*1164 FILLER_0_33_337
*1165 FILLER_0_33_349
*1166 FILLER_0_33_39
*1167 FILLER_0_33_51
*1168 FILLER_0_33_55
*1169 FILLER_0_33_57
*1170 FILLER_0_33_69
*1171 FILLER_0_33_77
*1172 FILLER_0_33_97
*1173 FILLER_0_34_118
*1174 FILLER_0_34_130
*1175 FILLER_0_34_138
*1176 FILLER_0_34_141
*1177 FILLER_0_34_15
*1178 FILLER_0_34_181
*1179 FILLER_0_34_193
*1180 FILLER_0_34_197
*1181 FILLER_0_34_204
*1182 FILLER_0_34_259
*1183 FILLER_0_34_27
*1184 FILLER_0_34_274
*1185 FILLER_0_34_278
*1186 FILLER_0_34_282
*1187 FILLER_0_34_29
*1188 FILLER_0_34_294
*1189 FILLER_0_34_299
*1190 FILLER_0_34_3
*1191 FILLER_0_34_307
*1192 FILLER_0_34_318
*1193 FILLER_0_34_330
*1194 FILLER_0_34_342
*1195 FILLER_0_34_350
*1196 FILLER_0_34_41
*1197 FILLER_0_34_53
*1198 FILLER_0_34_65
*1199 FILLER_0_34_77
*1200 FILLER_0_34_83
*1201 FILLER_0_34_85
*1202 FILLER_0_34_92
*1203 FILLER_0_34_98
*1204 FILLER_0_35_111
*1205 FILLER_0_35_125
*1206 FILLER_0_35_147
*1207 FILLER_0_35_15
*1208 FILLER_0_35_159
*1209 FILLER_0_35_167
*1210 FILLER_0_35_181
*1211 FILLER_0_35_193
*1212 FILLER_0_35_223
*1213 FILLER_0_35_228
*1214 FILLER_0_35_237
*1215 FILLER_0_35_245
*1216 FILLER_0_35_261
*1217 FILLER_0_35_27
*1218 FILLER_0_35_274
*1219 FILLER_0_35_284
*1220 FILLER_0_35_3
*1221 FILLER_0_35_308
*1222 FILLER_0_35_337
*1223 FILLER_0_35_349
*1224 FILLER_0_35_39
*1225 FILLER_0_35_51
*1226 FILLER_0_35_55
*1227 FILLER_0_35_57
*1228 FILLER_0_35_69
*1229 FILLER_0_35_81
*1230 FILLER_0_35_88
*1231 FILLER_0_35_99
*1232 FILLER_0_36_109
*1233 FILLER_0_36_117
*1234 FILLER_0_36_129
*1235 FILLER_0_36_136
*1236 FILLER_0_36_145
*1237 FILLER_0_36_15
*1238 FILLER_0_36_157
*1239 FILLER_0_36_169
*1240 FILLER_0_36_174
*1241 FILLER_0_36_195
*1242 FILLER_0_36_197
*1243 FILLER_0_36_205
*1244 FILLER_0_36_209
*1245 FILLER_0_36_221
*1246 FILLER_0_36_235
*1247 FILLER_0_36_247
*1248 FILLER_0_36_251
*1249 FILLER_0_36_256
*1250 FILLER_0_36_267
*1251 FILLER_0_36_27
*1252 FILLER_0_36_273
*1253 FILLER_0_36_287
*1254 FILLER_0_36_29
*1255 FILLER_0_36_299
*1256 FILLER_0_36_3
*1257 FILLER_0_36_307
*1258 FILLER_0_36_309
*1259 FILLER_0_36_320
*1260 FILLER_0_36_326
*1261 FILLER_0_36_344
*1262 FILLER_0_36_350
*1263 FILLER_0_36_41
*1264 FILLER_0_36_53
*1265 FILLER_0_36_61
*1266 FILLER_0_36_82
*1267 FILLER_0_36_85
*1268 FILLER_0_36_97
*1269 FILLER_0_37_105
*1270 FILLER_0_37_113
*1271 FILLER_0_37_128
*1272 FILLER_0_37_134
*1273 FILLER_0_37_140
*1274 FILLER_0_37_15
*1275 FILLER_0_37_169
*1276 FILLER_0_37_174
*1277 FILLER_0_37_180
*1278 FILLER_0_37_191
*1279 FILLER_0_37_199
*1280 FILLER_0_37_210
*1281 FILLER_0_37_214
*1282 FILLER_0_37_222
*1283 FILLER_0_37_228
*1284 FILLER_0_37_253
*1285 FILLER_0_37_262
*1286 FILLER_0_37_267
*1287 FILLER_0_37_27
*1288 FILLER_0_37_278
*1289 FILLER_0_37_297
*1290 FILLER_0_37_3
*1291 FILLER_0_37_331
*1292 FILLER_0_37_335
*1293 FILLER_0_37_337
*1294 FILLER_0_37_349
*1295 FILLER_0_37_39
*1296 FILLER_0_37_51
*1297 FILLER_0_37_55
*1298 FILLER_0_37_57
*1299 FILLER_0_37_65
*1300 FILLER_0_37_70
*1301 FILLER_0_37_78
*1302 FILLER_0_37_92
*1303 FILLER_0_37_97
*1304 FILLER_0_38_109
*1305 FILLER_0_38_113
*1306 FILLER_0_38_132
*1307 FILLER_0_38_14
*1308 FILLER_0_38_144
*1309 FILLER_0_38_150
*1310 FILLER_0_38_154
*1311 FILLER_0_38_158
*1312 FILLER_0_38_177
*1313 FILLER_0_38_18
*1314 FILLER_0_38_182
*1315 FILLER_0_38_190
*1316 FILLER_0_38_213
*1317 FILLER_0_38_22
*1318 FILLER_0_38_223
*1319 FILLER_0_38_225
*1320 FILLER_0_38_233
*1321 FILLER_0_38_261
*1322 FILLER_0_38_278
*1323 FILLER_0_38_281
*1324 FILLER_0_38_3
*1325 FILLER_0_38_307
*1326 FILLER_0_38_309
*1327 FILLER_0_38_318
*1328 FILLER_0_38_32
*1329 FILLER_0_38_340
*1330 FILLER_0_38_348
*1331 FILLER_0_38_38
*1332 FILLER_0_38_42
*1333 FILLER_0_38_46
*1334 FILLER_0_38_50
*1335 FILLER_0_38_54
*1336 FILLER_0_38_57
*1337 FILLER_0_38_62
*1338 FILLER_0_38_83
*1339 FILLER_0_38_97
*1340 FILLER_0_3_105
*1341 FILLER_0_3_111
*1342 FILLER_0_3_113
*1343 FILLER_0_3_125
*1344 FILLER_0_3_137
*1345 FILLER_0_3_149
*1346 FILLER_0_3_15
*1347 FILLER_0_3_161
*1348 FILLER_0_3_167
*1349 FILLER_0_3_169
*1350 FILLER_0_3_181
*1351 FILLER_0_3_193
*1352 FILLER_0_3_205
*1353 FILLER_0_3_217
*1354 FILLER_0_3_223
*1355 FILLER_0_3_225
*1356 FILLER_0_3_237
*1357 FILLER_0_3_249
*1358 FILLER_0_3_261
*1359 FILLER_0_3_27
*1360 FILLER_0_3_273
*1361 FILLER_0_3_279
*1362 FILLER_0_3_281
*1363 FILLER_0_3_293
*1364 FILLER_0_3_3
*1365 FILLER_0_3_305
*1366 FILLER_0_3_317
*1367 FILLER_0_3_329
*1368 FILLER_0_3_335
*1369 FILLER_0_3_337
*1370 FILLER_0_3_349
*1371 FILLER_0_3_39
*1372 FILLER_0_3_51
*1373 FILLER_0_3_55
*1374 FILLER_0_3_57
*1375 FILLER_0_3_69
*1376 FILLER_0_3_81
*1377 FILLER_0_3_93
*1378 FILLER_0_4_109
*1379 FILLER_0_4_121
*1380 FILLER_0_4_133
*1381 FILLER_0_4_139
*1382 FILLER_0_4_141
*1383 FILLER_0_4_15
*1384 FILLER_0_4_153
*1385 FILLER_0_4_165
*1386 FILLER_0_4_177
*1387 FILLER_0_4_189
*1388 FILLER_0_4_195
*1389 FILLER_0_4_197
*1390 FILLER_0_4_209
*1391 FILLER_0_4_221
*1392 FILLER_0_4_233
*1393 FILLER_0_4_245
*1394 FILLER_0_4_251
*1395 FILLER_0_4_253
*1396 FILLER_0_4_265
*1397 FILLER_0_4_27
*1398 FILLER_0_4_277
*1399 FILLER_0_4_289
*1400 FILLER_0_4_29
*1401 FILLER_0_4_3
*1402 FILLER_0_4_301
*1403 FILLER_0_4_307
*1404 FILLER_0_4_309
*1405 FILLER_0_4_321
*1406 FILLER_0_4_333
*1407 FILLER_0_4_345
*1408 FILLER_0_4_41
*1409 FILLER_0_4_53
*1410 FILLER_0_4_65
*1411 FILLER_0_4_77
*1412 FILLER_0_4_83
*1413 FILLER_0_4_85
*1414 FILLER_0_4_97
*1415 FILLER_0_5_105
*1416 FILLER_0_5_111
*1417 FILLER_0_5_113
*1418 FILLER_0_5_125
*1419 FILLER_0_5_137
*1420 FILLER_0_5_149
*1421 FILLER_0_5_15
*1422 FILLER_0_5_161
*1423 FILLER_0_5_167
*1424 FILLER_0_5_169
*1425 FILLER_0_5_181
*1426 FILLER_0_5_193
*1427 FILLER_0_5_205
*1428 FILLER_0_5_217
*1429 FILLER_0_5_223
*1430 FILLER_0_5_225
*1431 FILLER_0_5_237
*1432 FILLER_0_5_249
*1433 FILLER_0_5_261
*1434 FILLER_0_5_27
*1435 FILLER_0_5_273
*1436 FILLER_0_5_279
*1437 FILLER_0_5_281
*1438 FILLER_0_5_293
*1439 FILLER_0_5_3
*1440 FILLER_0_5_305
*1441 FILLER_0_5_317
*1442 FILLER_0_5_329
*1443 FILLER_0_5_335
*1444 FILLER_0_5_337
*1445 FILLER_0_5_349
*1446 FILLER_0_5_39
*1447 FILLER_0_5_51
*1448 FILLER_0_5_55
*1449 FILLER_0_5_57
*1450 FILLER_0_5_69
*1451 FILLER_0_5_81
*1452 FILLER_0_5_93
*1453 FILLER_0_6_109
*1454 FILLER_0_6_121
*1455 FILLER_0_6_133
*1456 FILLER_0_6_139
*1457 FILLER_0_6_141
*1458 FILLER_0_6_15
*1459 FILLER_0_6_153
*1460 FILLER_0_6_165
*1461 FILLER_0_6_177
*1462 FILLER_0_6_189
*1463 FILLER_0_6_195
*1464 FILLER_0_6_197
*1465 FILLER_0_6_209
*1466 FILLER_0_6_221
*1467 FILLER_0_6_233
*1468 FILLER_0_6_245
*1469 FILLER_0_6_251
*1470 FILLER_0_6_253
*1471 FILLER_0_6_265
*1472 FILLER_0_6_27
*1473 FILLER_0_6_277
*1474 FILLER_0_6_289
*1475 FILLER_0_6_29
*1476 FILLER_0_6_3
*1477 FILLER_0_6_301
*1478 FILLER_0_6_307
*1479 FILLER_0_6_309
*1480 FILLER_0_6_321
*1481 FILLER_0_6_333
*1482 FILLER_0_6_345
*1483 FILLER_0_6_41
*1484 FILLER_0_6_53
*1485 FILLER_0_6_65
*1486 FILLER_0_6_77
*1487 FILLER_0_6_83
*1488 FILLER_0_6_85
*1489 FILLER_0_6_97
*1490 FILLER_0_7_105
*1491 FILLER_0_7_111
*1492 FILLER_0_7_113
*1493 FILLER_0_7_125
*1494 FILLER_0_7_137
*1495 FILLER_0_7_149
*1496 FILLER_0_7_15
*1497 FILLER_0_7_161
*1498 FILLER_0_7_167
*1499 FILLER_0_7_169
*1500 FILLER_0_7_181