*SPEF "ieee 1481-1999"
*DESIGN "tt_um_ccollatz_SergioOliveros"
*DATE "11:11:11 Fri 11 11, 1111"
*VENDOR "OpenRCX"
*PROGRAM "Parallel Extraction"
*VERSION "1.0"
*DESIGN_FLOW "NAME_SCOPE LOCAL" "PIN_CAP NONE"
*DIVIDER /
*DELIMITER :
*BUS_DELIMITER []
*T_UNIT 1 NS
*C_UNIT 1 PF
*R_UNIT 1 OHM
*L_UNIT 1 HENRY

*NAME_MAP
*3 clk
*4 ena
*5 rst_n
*6 ui_in[0]
*7 ui_in[1]
*8 ui_in[2]
*9 ui_in[3]
*10 ui_in[4]
*11 ui_in[5]
*12 ui_in[6]
*13 ui_in[7]
*14 uio_in[0]
*15 uio_in[1]
*16 uio_in[2]
*17 uio_in[3]
*18 uio_in[4]
*19 uio_in[5]
*20 uio_in[6]
*21 uio_in[7]
*22 net17
*23 net18
*24 net19
*25 net20
*26 net21
*27 net22
*28 net23
*29 net24
*30 uio_out[0]
*31 uio_out[1]
*32 uio_out[2]
*33 uio_out[3]
*34 uio_out[4]
*35 uio_out[5]
*36 uio_out[6]
*37 uio_out[7]
*38 uo_out[0]
*39 net10
*40 net11
*41 net12
*42 net13
*43 net14
*44 net15
*45 net16
*46 _000_
*47 _001_
*48 _002_
*49 _003_
*50 _004_
*51 _005_
*52 _006_
*53 _007_
*54 _008_
*55 _009_
*56 _010_
*57 _011_
*58 _012_
*59 _013_
*60 _014_
*61 _015_
*62 _016_
*63 _017_
*64 _018_
*65 _019_
*66 _020_
*67 _021_
*68 _022_
*69 _023_
*70 _024_
*71 _025_
*72 _026_
*73 _027_
*74 _028_
*75 _029_
*76 _030_
*77 _031_
*78 _032_
*79 _033_
*80 _034_
*81 _035_
*82 _036_
*83 _037_
*84 _038_
*85 _039_
*86 _040_
*87 _041_
*88 _042_
*89 _043_
*90 _044_
*91 _045_
*92 _046_
*93 _047_
*94 _048_
*95 _049_
*96 _050_
*97 _051_
*98 _052_
*99 _053_
*100 _054_
*101 _055_
*102 _056_
*103 _057_
*104 _058_
*105 _059_
*106 _060_
*107 _061_
*108 _062_
*109 _063_
*110 _064_
*111 _065_
*112 _066_
*113 _067_
*114 _068_
*115 _069_
*116 _070_
*117 _071_
*118 _072_
*119 _073_
*120 _074_
*121 _075_
*122 _076_
*123 _077_
*124 _078_
*125 _079_
*126 _080_
*127 _081_
*128 _082_
*129 _083_
*130 _084_
*131 _085_
*132 busy
*133 clknet_0_clk
*134 clknet_1_0__leaf_clk
*135 clknet_1_1__leaf_clk
*136 futuro\[0\]
*137 futuro\[1\]
*138 n\[0\]
*139 n\[1\]
*140 n\[2\]
*141 n\[3\]
*142 n\[4\]
*143 n\[5\]
*144 n\[6\]
*145 n\[7\]
*146 net1
*147 net2
*148 net25
*149 net26
*150 net27
*151 net28
*152 net29
*153 net3
*154 net30
*155 net31
*156 net32
*157 net4
*158 net5
*159 net6
*160 net7
*161 net8
*162 net9
*163 presente\[0\]
*164 presente\[1\]
*165 FILLER_0_0_109
*166 FILLER_0_0_113
*167 FILLER_0_0_125
*168 FILLER_0_0_137
*169 FILLER_0_0_141
*170 FILLER_0_0_15
*171 FILLER_0_0_153
*172 FILLER_0_0_165
*173 FILLER_0_0_169
*174 FILLER_0_0_181
*175 FILLER_0_0_193
*176 FILLER_0_0_197
*177 FILLER_0_0_209
*178 FILLER_0_0_221
*179 FILLER_0_0_225
*180 FILLER_0_0_237
*181 FILLER_0_0_249
*182 FILLER_0_0_253
*183 FILLER_0_0_265
*184 FILLER_0_0_27
*185 FILLER_0_0_277
*186 FILLER_0_0_281
*187 FILLER_0_0_29
*188 FILLER_0_0_293
*189 FILLER_0_0_3
*190 FILLER_0_0_305
*191 FILLER_0_0_309
*192 FILLER_0_0_321
*193 FILLER_0_0_333
*194 FILLER_0_0_337
*195 FILLER_0_0_349
*196 FILLER_0_0_41
*197 FILLER_0_0_53
*198 FILLER_0_0_57
*199 FILLER_0_0_69
*200 FILLER_0_0_81
*201 FILLER_0_0_85
*202 FILLER_0_0_97
*203 FILLER_0_10_109
*204 FILLER_0_10_121
*205 FILLER_0_10_133
*206 FILLER_0_10_139
*207 FILLER_0_10_141
*208 FILLER_0_10_15
*209 FILLER_0_10_153
*210 FILLER_0_10_165
*211 FILLER_0_10_177
*212 FILLER_0_10_189
*213 FILLER_0_10_195
*214 FILLER_0_10_197
*215 FILLER_0_10_209
*216 FILLER_0_10_221
*217 FILLER_0_10_233
*218 FILLER_0_10_245
*219 FILLER_0_10_251
*220 FILLER_0_10_253
*221 FILLER_0_10_265
*222 FILLER_0_10_27
*223 FILLER_0_10_277
*224 FILLER_0_10_289
*225 FILLER_0_10_29
*226 FILLER_0_10_3
*227 FILLER_0_10_301
*228 FILLER_0_10_307
*229 FILLER_0_10_309
*230 FILLER_0_10_321
*231 FILLER_0_10_333
*232 FILLER_0_10_345
*233 FILLER_0_10_41
*234 FILLER_0_10_53
*235 FILLER_0_10_65
*236 FILLER_0_10_77
*237 FILLER_0_10_83
*238 FILLER_0_10_85
*239 FILLER_0_10_97
*240 FILLER_0_11_105
*241 FILLER_0_11_111
*242 FILLER_0_11_113
*243 FILLER_0_11_125
*244 FILLER_0_11_137
*245 FILLER_0_11_149
*246 FILLER_0_11_15
*247 FILLER_0_11_161
*248 FILLER_0_11_167
*249 FILLER_0_11_169
*250 FILLER_0_11_181
*251 FILLER_0_11_193
*252 FILLER_0_11_205
*253 FILLER_0_11_217
*254 FILLER_0_11_223
*255 FILLER_0_11_225
*256 FILLER_0_11_237
*257 FILLER_0_11_249
*258 FILLER_0_11_261
*259 FILLER_0_11_27
*260 FILLER_0_11_273
*261 FILLER_0_11_279
*262 FILLER_0_11_281
*263 FILLER_0_11_293
*264 FILLER_0_11_3
*265 FILLER_0_11_305
*266 FILLER_0_11_317
*267 FILLER_0_11_329
*268 FILLER_0_11_335
*269 FILLER_0_11_337
*270 FILLER_0_11_349
*271 FILLER_0_11_39
*272 FILLER_0_11_51
*273 FILLER_0_11_55
*274 FILLER_0_11_57
*275 FILLER_0_11_69
*276 FILLER_0_11_81
*277 FILLER_0_11_93
*278 FILLER_0_12_109
*279 FILLER_0_12_121
*280 FILLER_0_12_133
*281 FILLER_0_12_139
*282 FILLER_0_12_141
*283 FILLER_0_12_15
*284 FILLER_0_12_153
*285 FILLER_0_12_165
*286 FILLER_0_12_177
*287 FILLER_0_12_189
*288 FILLER_0_12_195
*289 FILLER_0_12_197
*290 FILLER_0_12_209
*291 FILLER_0_12_221
*292 FILLER_0_12_233
*293 FILLER_0_12_245
*294 FILLER_0_12_251
*295 FILLER_0_12_253
*296 FILLER_0_12_265
*297 FILLER_0_12_27
*298 FILLER_0_12_277
*299 FILLER_0_12_289
*300 FILLER_0_12_29
*301 FILLER_0_12_3
*302 FILLER_0_12_301
*303 FILLER_0_12_307
*304 FILLER_0_12_309
*305 FILLER_0_12_321
*306 FILLER_0_12_333
*307 FILLER_0_12_345
*308 FILLER_0_12_41
*309 FILLER_0_12_53
*310 FILLER_0_12_65
*311 FILLER_0_12_77
*312 FILLER_0_12_83
*313 FILLER_0_12_85
*314 FILLER_0_12_97
*315 FILLER_0_13_105
*316 FILLER_0_13_111
*317 FILLER_0_13_113
*318 FILLER_0_13_125
*319 FILLER_0_13_137
*320 FILLER_0_13_149
*321 FILLER_0_13_15
*322 FILLER_0_13_161
*323 FILLER_0_13_167
*324 FILLER_0_13_169
*325 FILLER_0_13_181
*326 FILLER_0_13_193
*327 FILLER_0_13_205
*328 FILLER_0_13_217
*329 FILLER_0_13_223
*330 FILLER_0_13_225
*331 FILLER_0_13_237
*332 FILLER_0_13_249
*333 FILLER_0_13_261
*334 FILLER_0_13_27
*335 FILLER_0_13_273
*336 FILLER_0_13_279
*337 FILLER_0_13_281
*338 FILLER_0_13_293
*339 FILLER_0_13_3
*340 FILLER_0_13_305
*341 FILLER_0_13_317
*342 FILLER_0_13_329
*343 FILLER_0_13_335
*344 FILLER_0_13_337
*345 FILLER_0_13_349
*346 FILLER_0_13_39
*347 FILLER_0_13_51
*348 FILLER_0_13_55
*349 FILLER_0_13_57
*350 FILLER_0_13_69
*351 FILLER_0_13_81
*352 FILLER_0_13_93
*353 FILLER_0_14_109
*354 FILLER_0_14_121
*355 FILLER_0_14_133
*356 FILLER_0_14_139
*357 FILLER_0_14_141
*358 FILLER_0_14_15
*359 FILLER_0_14_153
*360 FILLER_0_14_165
*361 FILLER_0_14_177
*362 FILLER_0_14_189
*363 FILLER_0_14_195
*364 FILLER_0_14_197
*365 FILLER_0_14_209
*366 FILLER_0_14_221
*367 FILLER_0_14_233
*368 FILLER_0_14_245
*369 FILLER_0_14_251
*370 FILLER_0_14_253
*371 FILLER_0_14_265
*372 FILLER_0_14_27
*373 FILLER_0_14_277
*374 FILLER_0_14_289
*375 FILLER_0_14_29
*376 FILLER_0_14_3
*377 FILLER_0_14_301
*378 FILLER_0_14_307
*379 FILLER_0_14_309
*380 FILLER_0_14_321
*381 FILLER_0_14_333
*382 FILLER_0_14_345
*383 FILLER_0_14_41
*384 FILLER_0_14_53
*385 FILLER_0_14_65
*386 FILLER_0_14_77
*387 FILLER_0_14_83
*388 FILLER_0_14_85
*389 FILLER_0_14_97
*390 FILLER_0_15_105
*391 FILLER_0_15_111
*392 FILLER_0_15_113
*393 FILLER_0_15_125
*394 FILLER_0_15_137
*395 FILLER_0_15_149
*396 FILLER_0_15_15
*397 FILLER_0_15_161
*398 FILLER_0_15_167
*399 FILLER_0_15_169
*400 FILLER_0_15_181
*401 FILLER_0_15_193
*402 FILLER_0_15_205
*403 FILLER_0_15_217
*404 FILLER_0_15_223
*405 FILLER_0_15_225
*406 FILLER_0_15_237
*407 FILLER_0_15_249
*408 FILLER_0_15_261
*409 FILLER_0_15_27
*410 FILLER_0_15_273
*411 FILLER_0_15_279
*412 FILLER_0_15_281
*413 FILLER_0_15_293
*414 FILLER_0_15_3
*415 FILLER_0_15_305
*416 FILLER_0_15_317
*417 FILLER_0_15_329
*418 FILLER_0_15_335
*419 FILLER_0_15_337
*420 FILLER_0_15_349
*421 FILLER_0_15_39
*422 FILLER_0_15_51
*423 FILLER_0_15_55
*424 FILLER_0_15_57
*425 FILLER_0_15_69
*426 FILLER_0_15_81
*427 FILLER_0_15_93
*428 FILLER_0_16_109
*429 FILLER_0_16_121
*430 FILLER_0_16_133
*431 FILLER_0_16_139
*432 FILLER_0_16_141
*433 FILLER_0_16_15
*434 FILLER_0_16_153
*435 FILLER_0_16_165
*436 FILLER_0_16_177
*437 FILLER_0_16_189
*438 FILLER_0_16_195
*439 FILLER_0_16_197
*440 FILLER_0_16_209
*441 FILLER_0_16_221
*442 FILLER_0_16_233
*443 FILLER_0_16_245
*444 FILLER_0_16_251
*445 FILLER_0_16_253
*446 FILLER_0_16_265
*447 FILLER_0_16_27
*448 FILLER_0_16_277
*449 FILLER_0_16_289
*450 FILLER_0_16_29
*451 FILLER_0_16_3
*452 FILLER_0_16_301
*453 FILLER_0_16_307
*454 FILLER_0_16_309
*455 FILLER_0_16_321
*456 FILLER_0_16_333
*457 FILLER_0_16_345
*458 FILLER_0_16_41
*459 FILLER_0_16_53
*460 FILLER_0_16_65
*461 FILLER_0_16_77
*462 FILLER_0_16_83
*463 FILLER_0_16_85
*464 FILLER_0_16_97
*465 FILLER_0_17_105
*466 FILLER_0_17_111
*467 FILLER_0_17_113
*468 FILLER_0_17_125
*469 FILLER_0_17_137
*470 FILLER_0_17_149
*471 FILLER_0_17_15
*472 FILLER_0_17_161
*473 FILLER_0_17_167
*474 FILLER_0_17_169
*475 FILLER_0_17_181
*476 FILLER_0_17_193
*477 FILLER_0_17_205
*478 FILLER_0_17_217
*479 FILLER_0_17_223
*480 FILLER_0_17_225
*481 FILLER_0_17_237
*482 FILLER_0_17_249
*483 FILLER_0_17_261
*484 FILLER_0_17_27
*485 FILLER_0_17_273
*486 FILLER_0_17_279
*487 FILLER_0_17_281
*488 FILLER_0_17_293
*489 FILLER_0_17_3
*490 FILLER_0_17_305
*491 FILLER_0_17_317
*492 FILLER_0_17_329
*493 FILLER_0_17_335
*494 FILLER_0_17_337
*495 FILLER_0_17_349
*496 FILLER_0_17_39
*497 FILLER_0_17_51
*498 FILLER_0_17_55
*499 FILLER_0_17_57
*500 FILLER_0_17_69
*501 FILLER_0_17_81
*502 FILLER_0_17_93
*503 FILLER_0_18_109
*504 FILLER_0_18_121
*505 FILLER_0_18_133
*506 FILLER_0_18_139
*507 FILLER_0_18_141
*508 FILLER_0_18_15
*509 FILLER_0_18_153
*510 FILLER_0_18_165
*511 FILLER_0_18_177
*512 FILLER_0_18_189
*513 FILLER_0_18_195
*514 FILLER_0_18_197
*515 FILLER_0_18_209
*516 FILLER_0_18_221
*517 FILLER_0_18_233
*518 FILLER_0_18_245
*519 FILLER_0_18_251
*520 FILLER_0_18_253
*521 FILLER_0_18_265
*522 FILLER_0_18_27
*523 FILLER_0_18_277
*524 FILLER_0_18_289
*525 FILLER_0_18_29
*526 FILLER_0_18_3
*527 FILLER_0_18_301
*528 FILLER_0_18_307
*529 FILLER_0_18_309
*530 FILLER_0_18_321
*531 FILLER_0_18_333
*532 FILLER_0_18_345
*533 FILLER_0_18_41
*534 FILLER_0_18_53
*535 FILLER_0_18_65
*536 FILLER_0_18_77
*537 FILLER_0_18_83
*538 FILLER_0_18_85
*539 FILLER_0_18_97
*540 FILLER_0_19_105
*541 FILLER_0_19_111
*542 FILLER_0_19_113
*543 FILLER_0_19_125
*544 FILLER_0_19_137
*545 FILLER_0_19_149
*546 FILLER_0_19_15
*547 FILLER_0_19_161
*548 FILLER_0_19_167
*549 FILLER_0_19_169
*550 FILLER_0_19_181
*551 FILLER_0_19_193
*552 FILLER_0_19_205
*553 FILLER_0_19_217
*554 FILLER_0_19_223
*555 FILLER_0_19_225
*556 FILLER_0_19_237
*557 FILLER_0_19_249
*558 FILLER_0_19_261
*559 FILLER_0_19_27
*560 FILLER_0_19_273
*561 FILLER_0_19_279
*562 FILLER_0_19_281
*563 FILLER_0_19_293
*564 FILLER_0_19_3
*565 FILLER_0_19_305
*566 FILLER_0_19_317
*567 FILLER_0_19_329
*568 FILLER_0_19_335
*569 FILLER_0_19_337
*570 FILLER_0_19_349
*571 FILLER_0_19_39
*572 FILLER_0_19_51
*573 FILLER_0_19_55
*574 FILLER_0_19_57
*575 FILLER_0_19_69
*576 FILLER_0_19_81
*577 FILLER_0_19_93
*578 FILLER_0_1_105
*579 FILLER_0_1_111
*580 FILLER_0_1_113
*581 FILLER_0_1_125
*582 FILLER_0_1_137
*583 FILLER_0_1_149
*584 FILLER_0_1_15
*585 FILLER_0_1_161
*586 FILLER_0_1_167
*587 FILLER_0_1_169
*588 FILLER_0_1_181
*589 FILLER_0_1_193
*590 FILLER_0_1_205
*591 FILLER_0_1_217
*592 FILLER_0_1_223
*593 FILLER_0_1_225
*594 FILLER_0_1_237
*595 FILLER_0_1_249
*596 FILLER_0_1_261
*597 FILLER_0_1_27
*598 FILLER_0_1_273
*599 FILLER_0_1_279
*600 FILLER_0_1_281
*601 FILLER_0_1_293
*602 FILLER_0_1_3
*603 FILLER_0_1_305
*604 FILLER_0_1_317
*605 FILLER_0_1_329
*606 FILLER_0_1_335
*607 FILLER_0_1_337
*608 FILLER_0_1_349
*609 FILLER_0_1_39
*610 FILLER_0_1_51
*611 FILLER_0_1_55
*612 FILLER_0_1_57
*613 FILLER_0_1_69
*614 FILLER_0_1_81
*615 FILLER_0_1_93
*616 FILLER_0_20_109
*617 FILLER_0_20_121
*618 FILLER_0_20_133
*619 FILLER_0_20_139
*620 FILLER_0_20_141
*621 FILLER_0_20_15
*622 FILLER_0_20_153
*623 FILLER_0_20_165
*624 FILLER_0_20_177
*625 FILLER_0_20_189
*626 FILLER_0_20_195
*627 FILLER_0_20_197
*628 FILLER_0_20_209
*629 FILLER_0_20_221
*630 FILLER_0_20_233
*631 FILLER_0_20_245
*632 FILLER_0_20_251
*633 FILLER_0_20_253
*634 FILLER_0_20_265
*635 FILLER_0_20_27
*636 FILLER_0_20_277
*637 FILLER_0_20_289
*638 FILLER_0_20_29
*639 FILLER_0_20_3
*640 FILLER_0_20_301
*641 FILLER_0_20_307
*642 FILLER_0_20_309
*643 FILLER_0_20_321
*644 FILLER_0_20_333
*645 FILLER_0_20_345
*646 FILLER_0_20_41
*647 FILLER_0_20_53
*648 FILLER_0_20_65
*649 FILLER_0_20_77
*650 FILLER_0_20_83
*651 FILLER_0_20_85
*652 FILLER_0_20_97
*653 FILLER_0_21_105
*654 FILLER_0_21_111
*655 FILLER_0_21_113
*656 FILLER_0_21_125
*657 FILLER_0_21_137
*658 FILLER_0_21_149
*659 FILLER_0_21_15
*660 FILLER_0_21_161
*661 FILLER_0_21_167
*662 FILLER_0_21_169
*663 FILLER_0_21_181
*664 FILLER_0_21_193
*665 FILLER_0_21_205
*666 FILLER_0_21_217
*667 FILLER_0_21_223
*668 FILLER_0_21_225
*669 FILLER_0_21_237
*670 FILLER_0_21_249
*671 FILLER_0_21_261
*672 FILLER_0_21_27
*673 FILLER_0_21_273
*674 FILLER_0_21_279
*675 FILLER_0_21_281
*676 FILLER_0_21_293
*677 FILLER_0_21_3
*678 FILLER_0_21_305
*679 FILLER_0_21_317
*680 FILLER_0_21_329
*681 FILLER_0_21_335
*682 FILLER_0_21_337
*683 FILLER_0_21_349
*684 FILLER_0_21_39
*685 FILLER_0_21_51
*686 FILLER_0_21_55
*687 FILLER_0_21_57
*688 FILLER_0_21_69
*689 FILLER_0_21_81
*690 FILLER_0_21_93
*691 FILLER_0_22_109
*692 FILLER_0_22_121
*693 FILLER_0_22_133
*694 FILLER_0_22_139
*695 FILLER_0_22_141
*696 FILLER_0_22_15
*697 FILLER_0_22_153
*698 FILLER_0_22_165
*699 FILLER_0_22_177
*700 FILLER_0_22_189
*701 FILLER_0_22_195
*702 FILLER_0_22_197
*703 FILLER_0_22_209
*704 FILLER_0_22_221
*705 FILLER_0_22_233
*706 FILLER_0_22_245
*707 FILLER_0_22_251
*708 FILLER_0_22_253
*709 FILLER_0_22_265
*710 FILLER_0_22_27
*711 FILLER_0_22_277
*712 FILLER_0_22_289
*713 FILLER_0_22_29
*714 FILLER_0_22_3
*715 FILLER_0_22_301
*716 FILLER_0_22_307
*717 FILLER_0_22_309
*718 FILLER_0_22_321
*719 FILLER_0_22_333
*720 FILLER_0_22_345
*721 FILLER_0_22_41
*722 FILLER_0_22_53
*723 FILLER_0_22_65
*724 FILLER_0_22_77
*725 FILLER_0_22_83
*726 FILLER_0_22_85
*727 FILLER_0_22_97
*728 FILLER_0_23_105
*729 FILLER_0_23_111
*730 FILLER_0_23_113
*731 FILLER_0_23_125
*732 FILLER_0_23_137
*733 FILLER_0_23_149
*734 FILLER_0_23_15
*735 FILLER_0_23_161
*736 FILLER_0_23_167
*737 FILLER_0_23_169
*738 FILLER_0_23_181
*739 FILLER_0_23_193
*740 FILLER_0_23_205
*741 FILLER_0_23_217
*742 FILLER_0_23_223
*743 FILLER_0_23_225
*744 FILLER_0_23_237
*745 FILLER_0_23_249
*746 FILLER_0_23_261
*747 FILLER_0_23_27
*748 FILLER_0_23_273
*749 FILLER_0_23_279
*750 FILLER_0_23_281
*751 FILLER_0_23_293
*752 FILLER_0_23_3
*753 FILLER_0_23_305
*754 FILLER_0_23_317
*755 FILLER_0_23_329
*756 FILLER_0_23_335
*757 FILLER_0_23_337
*758 FILLER_0_23_349
*759 FILLER_0_23_39
*760 FILLER_0_23_51
*761 FILLER_0_23_55
*762 FILLER_0_23_57
*763 FILLER_0_23_69
*764 FILLER_0_23_81
*765 FILLER_0_23_93
*766 FILLER_0_24_109
*767 FILLER_0_24_121
*768 FILLER_0_24_133
*769 FILLER_0_24_139
*770 FILLER_0_24_141
*771 FILLER_0_24_15
*772 FILLER_0_24_153
*773 FILLER_0_24_165
*774 FILLER_0_24_177
*775 FILLER_0_24_189
*776 FILLER_0_24_195
*777 FILLER_0_24_197
*778 FILLER_0_24_209
*779 FILLER_0_24_221
*780 FILLER_0_24_233
*781 FILLER_0_24_245
*782 FILLER_0_24_251
*783 FILLER_0_24_253
*784 FILLER_0_24_265
*785 FILLER_0_24_27
*786 FILLER_0_24_277
*787 FILLER_0_24_289
*788 FILLER_0_24_29
*789 FILLER_0_24_3
*790 FILLER_0_24_301
*791 FILLER_0_24_307
*792 FILLER_0_24_309
*793 FILLER_0_24_321
*794 FILLER_0_24_333
*795 FILLER_0_24_345
*796 FILLER_0_24_41
*797 FILLER_0_24_53
*798 FILLER_0_24_65
*799 FILLER_0_24_77
*800 FILLER_0_24_83
*801 FILLER_0_24_85
*802 FILLER_0_24_97
*803 FILLER_0_25_105
*804 FILLER_0_25_111
*805 FILLER_0_25_113
*806 FILLER_0_25_125
*807 FILLER_0_25_137
*808 FILLER_0_25_149
*809 FILLER_0_25_15
*810 FILLER_0_25_161
*811 FILLER_0_25_167
*812 FILLER_0_25_169
*813 FILLER_0_25_181
*814 FILLER_0_25_193
*815 FILLER_0_25_205
*816 FILLER_0_25_217
*817 FILLER_0_25_223
*818 FILLER_0_25_225
*819 FILLER_0_25_237
*820 FILLER_0_25_249
*821 FILLER_0_25_261
*822 FILLER_0_25_27
*823 FILLER_0_25_273
*824 FILLER_0_25_279
*825 FILLER_0_25_281
*826 FILLER_0_25_293
*827 FILLER_0_25_3
*828 FILLER_0_25_305
*829 FILLER_0_25_317
*830 FILLER_0_25_329
*831 FILLER_0_25_335
*832 FILLER_0_25_337
*833 FILLER_0_25_349
*834 FILLER_0_25_39
*835 FILLER_0_25_51
*836 FILLER_0_25_55
*837 FILLER_0_25_57
*838 FILLER_0_25_69
*839 FILLER_0_25_81
*840 FILLER_0_25_93
*841 FILLER_0_26_109
*842 FILLER_0_26_121
*843 FILLER_0_26_133
*844 FILLER_0_26_139
*845 FILLER_0_26_141
*846 FILLER_0_26_15
*847 FILLER_0_26_153
*848 FILLER_0_26_165
*849 FILLER_0_26_177
*850 FILLER_0_26_189
*851 FILLER_0_26_195
*852 FILLER_0_26_197
*853 FILLER_0_26_209
*854 FILLER_0_26_221
*855 FILLER_0_26_233
*856 FILLER_0_26_245
*857 FILLER_0_26_251
*858 FILLER_0_26_253
*859 FILLER_0_26_265
*860 FILLER_0_26_27
*861 FILLER_0_26_277
*862 FILLER_0_26_289
*863 FILLER_0_26_29
*864 FILLER_0_26_3
*865 FILLER_0_26_301
*866 FILLER_0_26_307
*867 FILLER_0_26_309
*868 FILLER_0_26_321
*869 FILLER_0_26_333
*870 FILLER_0_26_345
*871 FILLER_0_26_41
*872 FILLER_0_26_53
*873 FILLER_0_26_65
*874 FILLER_0_26_77
*875 FILLER_0_26_83
*876 FILLER_0_26_85
*877 FILLER_0_26_97
*878 FILLER_0_27_105
*879 FILLER_0_27_111
*880 FILLER_0_27_113
*881 FILLER_0_27_125
*882 FILLER_0_27_137
*883 FILLER_0_27_149
*884 FILLER_0_27_15
*885 FILLER_0_27_161
*886 FILLER_0_27_167
*887 FILLER_0_27_169
*888 FILLER_0_27_181
*889 FILLER_0_27_193
*890 FILLER_0_27_205
*891 FILLER_0_27_217
*892 FILLER_0_27_223
*893 FILLER_0_27_225
*894 FILLER_0_27_237
*895 FILLER_0_27_249
*896 FILLER_0_27_261
*897 FILLER_0_27_27
*898 FILLER_0_27_273
*899 FILLER_0_27_279
*900 FILLER_0_27_281
*901 FILLER_0_27_293
*902 FILLER_0_27_3
*903 FILLER_0_27_305
*904 FILLER_0_27_317
*905 FILLER_0_27_329
*906 FILLER_0_27_335
*907 FILLER_0_27_337
*908 FILLER_0_27_349
*909 FILLER_0_27_39
*910 FILLER_0_27_51
*911 FILLER_0_27_55
*912 FILLER_0_27_57
*913 FILLER_0_27_69
*914 FILLER_0_27_81
*915 FILLER_0_27_93
*916 FILLER_0_28_109
*917 FILLER_0_28_121
*918 FILLER_0_28_133
*919 FILLER_0_28_139
*920 FILLER_0_28_141
*921 FILLER_0_28_15
*922 FILLER_0_28_153
*923 FILLER_0_28_165
*924 FILLER_0_28_177
*925 FILLER_0_28_189
*926 FILLER_0_28_195
*927 FILLER_0_28_197
*928 FILLER_0_28_209
*929 FILLER_0_28_221
*930 FILLER_0_28_233
*931 FILLER_0_28_245
*932 FILLER_0_28_251
*933 FILLER_0_28_253
*934 FILLER_0_28_265
*935 FILLER_0_28_27
*936 FILLER_0_28_277
*937 FILLER_0_28_289
*938 FILLER_0_28_29
*939 FILLER_0_28_3
*940 FILLER_0_28_301
*941 FILLER_0_28_307
*942 FILLER_0_28_309
*943 FILLER_0_28_321
*944 FILLER_0_28_333
*945 FILLER_0_28_345
*946 FILLER_0_28_41
*947 FILLER_0_28_53
*948 FILLER_0_28_65
*949 FILLER_0_28_77
*950 FILLER_0_28_83
*951 FILLER_0_28_85
*952 FILLER_0_28_97
*953 FILLER_0_29_105
*954 FILLER_0_29_111
*955 FILLER_0_29_113
*956 FILLER_0_29_125
*957 FILLER_0_29_137
*958 FILLER_0_29_149
*959 FILLER_0_29_15
*960 FILLER_0_29_161
*961 FILLER_0_29_167
*962 FILLER_0_29_169
*963 FILLER_0_29_181
*964 FILLER_0_29_193
*965 FILLER_0_29_205
*966 FILLER_0_29_217
*967 FILLER_0_29_223
*968 FILLER_0_29_225
*969 FILLER_0_29_237
*970 FILLER_0_29_249
*971 FILLER_0_29_261
*972 FILLER_0_29_27
*973 FILLER_0_29_273
*974 FILLER_0_29_279
*975 FILLER_0_29_281
*976 FILLER_0_29_293
*977 FILLER_0_29_3
*978 FILLER_0_29_305
*979 FILLER_0_29_317
*980 FILLER_0_29_329
*981 FILLER_0_29_335
*982 FILLER_0_29_337
*983 FILLER_0_29_349
*984 FILLER_0_29_39
*985 FILLER_0_29_51
*986 FILLER_0_29_55
*987 FILLER_0_29_57
*988 FILLER_0_29_69
*989 FILLER_0_29_81
*990 FILLER_0_29_93
*991 FILLER_0_2_109
*992 FILLER_0_2_121
*993 FILLER_0_2_133
*994 FILLER_0_2_139
*995 FILLER_0_2_141
*996 FILLER_0_2_15
*997 FILLER_0_2_153
*998 FILLER_0_2_165
*999 FILLER_0_2_177
*1000 FILLER_0_2_189
*1001 FILLER_0_2_195
*1002 FILLER_0_2_197
*1003 FILLER_0_2_209
*1004 FILLER_0_2_221
*1005 FILLER_0_2_233
*1006 FILLER_0_2_245
*1007 FILLER_0_2_251
*1008 FILLER_0_2_253
*1009 FILLER_0_2_265
*1010 FILLER_0_2_27
*1011 FILLER_0_2_277
*1012 FILLER_0_2_289
*1013 FILLER_0_2_29
*1014 FILLER_0_2_3
*1015 FILLER_0_2_301
*1016 FILLER_0_2_307
*1017 FILLER_0_2_309
*1018 FILLER_0_2_321
*1019 FILLER_0_2_333
*1020 FILLER_0_2_345
*1021 FILLER_0_2_41
*1022 FILLER_0_2_53
*1023 FILLER_0_2_65
*1024 FILLER_0_2_77
*1025 FILLER_0_2_83
*1026 FILLER_0_2_85
*1027 FILLER_0_2_97
*1028 FILLER_0_30_109
*1029 FILLER_0_30_121
*1030 FILLER_0_30_133
*1031 FILLER_0_30_139
*1032 FILLER_0_30_141
*1033 FILLER_0_30_15
*1034 FILLER_0_30_153
*1035 FILLER_0_30_165
*1036 FILLER_0_30_177
*1037 FILLER_0_30_189
*1038 FILLER_0_30_195
*1039 FILLER_0_30_197
*1040 FILLER_0_30_209
*1041 FILLER_0_30_221
*1042 FILLER_0_30_233
*1043 FILLER_0_30_245
*1044 FILLER_0_30_251
*1045 FILLER_0_30_253
*1046 FILLER_0_30_265
*1047 FILLER_0_30_27
*1048 FILLER_0_30_277
*1049 FILLER_0_30_289
*1050 FILLER_0_30_29
*1051 FILLER_0_30_3
*1052 FILLER_0_30_301
*1053 FILLER_0_30_307
*1054 FILLER_0_30_309
*1055 FILLER_0_30_321
*1056 FILLER_0_30_333
*1057 FILLER_0_30_345
*1058 FILLER_0_30_41
*1059 FILLER_0_30_53
*1060 FILLER_0_30_65
*1061 FILLER_0_30_77
*1062 FILLER_0_30_83
*1063 FILLER_0_30_85
*1064 FILLER_0_30_97
*1065 FILLER_0_31_105
*1066 FILLER_0_31_111
*1067 FILLER_0_31_113
*1068 FILLER_0_31_125
*1069 FILLER_0_31_137
*1070 FILLER_0_31_149
*1071 FILLER_0_31_15
*1072 FILLER_0_31_161
*1073 FILLER_0_31_167
*1074 FILLER_0_31_169
*1075 FILLER_0_31_181
*1076 FILLER_0_31_193
*1077 FILLER_0_31_205
*1078 FILLER_0_31_217
*1079 FILLER_0_31_223
*1080 FILLER_0_31_225
*1081 FILLER_0_31_237
*1082 FILLER_0_31_249
*1083 FILLER_0_31_266
*1084 FILLER_0_31_27
*1085 FILLER_0_31_275
*1086 FILLER_0_31_279
*1087 FILLER_0_31_281
*1088 FILLER_0_31_293
*1089 FILLER_0_31_3
*1090 FILLER_0_31_304
*1091 FILLER_0_31_316
*1092 FILLER_0_31_328
*1093 FILLER_0_31_337
*1094 FILLER_0_31_349
*1095 FILLER_0_31_39
*1096 FILLER_0_31_51
*1097 FILLER_0_31_55
*1098 FILLER_0_31_57
*1099 FILLER_0_31_69
*1100 FILLER_0_31_81
*1101 FILLER_0_31_93
*1102 FILLER_0_32_109
*1103 FILLER_0_32_121
*1104 FILLER_0_32_133
*1105 FILLER_0_32_139
*1106 FILLER_0_32_15
*1107 FILLER_0_32_161
*1108 FILLER_0_32_173
*1109 FILLER_0_32_185
*1110 FILLER_0_32_193
*1111 FILLER_0_32_197
*1112 FILLER_0_32_209
*1113 FILLER_0_32_221
*1114 FILLER_0_32_229
*1115 FILLER_0_32_238
*1116 FILLER_0_32_250
*1117 FILLER_0_32_27
*1118 FILLER_0_32_29
*1119 FILLER_0_32_293
*1120 FILLER_0_32_3
*1121 FILLER_0_32_303
*1122 FILLER_0_32_307
*1123 FILLER_0_32_309
*1124 FILLER_0_32_321
*1125 FILLER_0_32_333
*1126 FILLER_0_32_345
*1127 FILLER_0_32_41
*1128 FILLER_0_32_53
*1129 FILLER_0_32_65
*1130 FILLER_0_32_77
*1131 FILLER_0_32_83
*1132 FILLER_0_32_85
*1133 FILLER_0_32_97
*1134 FILLER_0_33_105
*1135 FILLER_0_33_111
*1136 FILLER_0_33_113
*1137 FILLER_0_33_125
*1138 FILLER_0_33_137
*1139 FILLER_0_33_149
*1140 FILLER_0_33_15
*1141 FILLER_0_33_161
*1142 FILLER_0_33_167
*1143 FILLER_0_33_169
*1144 FILLER_0_33_181
*1145 FILLER_0_33_185
*1146 FILLER_0_33_219
*1147 FILLER_0_33_223
*1148 FILLER_0_33_225
*1149 FILLER_0_33_235
*1150 FILLER_0_33_247
*1151 FILLER_0_33_269
*1152 FILLER_0_33_27
*1153 FILLER_0_33_277
*1154 FILLER_0_33_281
*1155 FILLER_0_33_293
*1156 FILLER_0_33_3
*1157 FILLER_0_33_304
*1158 FILLER_0_33_308
*1159 FILLER_0_33_326
*1160 FILLER_0_33_334
*1161 FILLER_0_33_337
*1162 FILLER_0_33_349
*1163 FILLER_0_33_39
*1164 FILLER_0_33_51
*1165 FILLER_0_33_55
*1166 FILLER_0_33_57
*1167 FILLER_0_33_69
*1168 FILLER_0_33_81
*1169 FILLER_0_33_93
*1170 FILLER_0_34_102
*1171 FILLER_0_34_114
*1172 FILLER_0_34_126
*1173 FILLER_0_34_138
*1174 FILLER_0_34_141
*1175 FILLER_0_34_15
*1176 FILLER_0_34_153
*1177 FILLER_0_34_165
*1178 FILLER_0_34_183
*1179 FILLER_0_34_195
*1180 FILLER_0_34_197
*1181 FILLER_0_34_212
*1182 FILLER_0_34_229
*1183 FILLER_0_34_235
*1184 FILLER_0_34_239
*1185 FILLER_0_34_251
*1186 FILLER_0_34_266
*1187 FILLER_0_34_27
*1188 FILLER_0_34_29
*1189 FILLER_0_34_296
*1190 FILLER_0_34_3
*1191 FILLER_0_34_305
*1192 FILLER_0_34_309
*1193 FILLER_0_34_315
*1194 FILLER_0_34_333
*1195 FILLER_0_34_345
*1196 FILLER_0_34_41
*1197 FILLER_0_34_53
*1198 FILLER_0_34_65
*1199 FILLER_0_34_73
*1200 FILLER_0_34_79
*1201 FILLER_0_34_83
*1202 FILLER_0_34_85
*1203 FILLER_0_34_93
*1204 FILLER_0_35_132
*1205 FILLER_0_35_144
*1206 FILLER_0_35_15
*1207 FILLER_0_35_156
*1208 FILLER_0_35_188
*1209 FILLER_0_35_209
*1210 FILLER_0_35_219
*1211 FILLER_0_35_223
*1212 FILLER_0_35_225
*1213 FILLER_0_35_247
*1214 FILLER_0_35_259
*1215 FILLER_0_35_267
*1216 FILLER_0_35_27
*1217 FILLER_0_35_275
*1218 FILLER_0_35_279
*1219 FILLER_0_35_287
*1220 FILLER_0_35_299
*1221 FILLER_0_35_3
*1222 FILLER_0_35_317
*1223 FILLER_0_35_328
*1224 FILLER_0_35_345
*1225 FILLER_0_35_39
*1226 FILLER_0_35_51
*1227 FILLER_0_35_55
*1228 FILLER_0_35_57
*1229 FILLER_0_35_65
*1230 FILLER_0_35_90
*1231 FILLER_0_36_105
*1232 FILLER_0_36_111
*1233 FILLER_0_36_115
*1234 FILLER_0_36_119
*1235 FILLER_0_36_123
*1236 FILLER_0_36_129
*1237 FILLER_0_36_135
*1238 FILLER_0_36_139
*1239 FILLER_0_36_141
*1240 FILLER_0_36_15
*1241 FILLER_0_36_153
*1242 FILLER_0_36_160
*1243 FILLER_0_36_172
*1244 FILLER_0_36_184
*1245 FILLER_0_36_193
*1246 FILLER_0_36_197
*1247 FILLER_0_36_201
*1248 FILLER_0_36_237
*1249 FILLER_0_36_245
*1250 FILLER_0_36_261
*1251 FILLER_0_36_267
*1252 FILLER_0_36_27
*1253 FILLER_0_36_274
*1254 FILLER_0_36_280
*1255 FILLER_0_36_29
*1256 FILLER_0_36_298
*1257 FILLER_0_36_3
*1258 FILLER_0_36_302
*1259 FILLER_0_36_306
*1260 FILLER_0_36_317
*1261 FILLER_0_36_324
*1262 FILLER_0_36_343
*1263 FILLER_0_36_41
*1264 FILLER_0_36_53
*1265 FILLER_0_36_65
*1266 FILLER_0_36_77
*1267 FILLER_0_36_83
*1268 FILLER_0_36_93
*1269 FILLER_0_37_108
*1270 FILLER_0_37_15
*1271 FILLER_0_37_169
*1272 FILLER_0_37_177
*1273 FILLER_0_37_192
*1274 FILLER_0_37_223
*1275 FILLER_0_37_225
*1276 FILLER_0_37_233
*1277 FILLER_0_37_243
*1278 FILLER_0_37_256
*1279 FILLER_0_37_260
*1280 FILLER_0_37_27
*1281 FILLER_0_37_273
*1282 FILLER_0_37_281
*1283 FILLER_0_37_285
*1284 FILLER_0_37_293
*1285 FILLER_0_37_3
*1286 FILLER_0_37_308
*1287 FILLER_0_37_320
*1288 FILLER_0_37_326
*1289 FILLER_0_37_334
*1290 FILLER_0_37_337
*1291 FILLER_0_37_349
*1292 FILLER_0_37_39
*1293 FILLER_0_37_51
*1294 FILLER_0_37_55
*1295 FILLER_0_37_57
*1296 FILLER_0_37_63
*1297 FILLER_0_37_88
*1298 FILLER_0_38_110
*1299 FILLER_0_38_113
*1300 FILLER_0_38_125
*1301 FILLER_0_38_129
*1302 FILLER_0_38_133
*1303 FILLER_0_38_139
*1304 FILLER_0_38_14
*1305 FILLER_0_38_144
*1306 FILLER_0_38_150
*1307 FILLER_0_38_154
*1308 FILLER_0_38_158
*1309 FILLER_0_38_169
*1310 FILLER_0_38_18
*1311 FILLER_0_38_186
*1312 FILLER_0_38_195
*1313 FILLER_0_38_197
*1314 FILLER_0_38_209
*1315 FILLER_0_38_22
*1316 FILLER_0_38_221
*1317 FILLER_0_38_246
*1318 FILLER_0_38_258
*1319 FILLER_0_38_264
*1320 FILLER_0_38_271
*1321 FILLER_0_38_278
*1322 FILLER_0_38_281
*1323 FILLER_0_38_3
*1324 FILLER_0_38_315
*1325 FILLER_0_38_32
*1326 FILLER_0_38_334
*1327 FILLER_0_38_340
*1328 FILLER_0_38_348
*1329 FILLER_0_38_38
*1330 FILLER_0_38_42
*1331 FILLER_0_38_46
*1332 FILLER_0_38_50
*1333 FILLER_0_38_54
*1334 FILLER_0_38_57
*1335 FILLER_0_38_62
*1336 FILLER_0_38_66
*1337 FILLER_0_38_70
*1338 FILLER_0_38_78
*1339 FILLER_0_38_85
*1340 FILLER_0_38_93
*1341 FILLER_0_38_98
*1342 FILLER_0_3_105
*1343 FILLER_0_3_111
*1344 FILLER_0_3_113
*1345 FILLER_0_3_125
*1346 FILLER_0_3_137
*1347 FILLER_0_3_149
*1348 FILLER_0_3_15
*1349 FILLER_0_3_161
*1350 FILLER_0_3_167
*1351 FILLER_0_3_169
*1352 FILLER_0_3_181
*1353 FILLER_0_3_193
*1354 FILLER_0_3_205
*1355 FILLER_0_3_217
*1356 FILLER_0_3_223
*1357 FILLER_0_3_225
*1358 FILLER_0_3_237
*1359 FILLER_0_3_249
*1360 FILLER_0_3_261
*1361 FILLER_0_3_27
*1362 FILLER_0_3_273
*1363 FILLER_0_3_279
*1364 FILLER_0_3_281
*1365 FILLER_0_3_293
*1366 FILLER_0_3_3
*1367 FILLER_0_3_305
*1368 FILLER_0_3_317
*1369 FILLER_0_3_329
*1370 FILLER_0_3_335
*1371 FILLER_0_3_337
*1372 FILLER_0_3_349
*1373 FILLER_0_3_39
*1374 FILLER_0_3_51
*1375 FILLER_0_3_55
*1376 FILLER_0_3_57
*1377 FILLER_0_3_69
*1378 FILLER_0_3_81
*1379 FILLER_0_3_93
*1380 FILLER_0_4_109
*1381 FILLER_0_4_121
*1382 FILLER_0_4_133
*1383 FILLER_0_4_139
*1384 FILLER_0_4_141
*1385 FILLER_0_4_15
*1386 FILLER_0_4_153
*1387 FILLER_0_4_165
*1388 FILLER_0_4_177
*1389 FILLER_0_4_189
*1390 FILLER_0_4_195
*1391 FILLER_0_4_197
*1392 FILLER_0_4_209
*1393 FILLER_0_4_221
*1394 FILLER_0_4_233
*1395 FILLER_0_4_245
*1396 FILLER_0_4_251
*1397 FILLER_0_4_253
*1398 FILLER_0_4_265
*1399 FILLER_0_4_27
*1400 FILLER_0_4_277
*1401 FILLER_0_4_289
*1402 FILLER_0_4_29
*1403 FILLER_0_4_3
*1404 FILLER_0_4_301
*1405 FILLER_0_4_307
*1406 FILLER_0_4_309
*1407 FILLER_0_4_321
*1408 FILLER_0_4_333
*1409 FILLER_0_4_345
*1410 FILLER_0_4_41
*1411 FILLER_0_4_53
*1412 FILLER_0_4_65
*1413 FILLER_0_4_77
*1414 FILLER_0_4_83
*1415 FILLER_0_4_85
*1416 FILLER_0_4_97
*1417 FILLER_0_5_105
*1418 FILLER_0_5_111
*1419 FILLER_0_5_113
*1420 FILLER_0_5_125
*1421 FILLER_0_5_137
*1422 FILLER_0_5_149
*1423 FILLER_0_5_15
*1424 FILLER_0_5_161
*1425 FILLER_0_5_167
*1426 FILLER_0_5_169
*1427 FILLER_0_5_181
*1428 FILLER_0_5_193
*1429 FILLER_0_5_205
*1430 FILLER_0_5_217
*1431 FILLER_0_5_223
*1432 FILLER_0_5_225
*1433 FILLER_0_5_237
*1434 FILLER_0_5_249
*1435 FILLER_0_5_261
*1436 FILLER_0_5_27
*1437 FILLER_0_5_273
*1438 FILLER_0_5_279
*1439 FILLER_0_5_281
*1440 FILLER_0_5_293
*1441 FILLER_0_5_3
*1442 FILLER_0_5_305
*1443 FILLER_0_5_317
*1444 FILLER_0_5_329
*1445 FILLER_0_5_335
*1446 FILLER_0_5_337
*1447 FILLER_0_5_349
*1448 FILLER_0_5_39
*1449 FILLER_0_5_51
*1450 FILLER_0_5_55
*1451 FILLER_0_5_57
*1452 FILLER_0_5_69
*1453 FILLER_0_5_81
*1454 FILLER_0_5_93
*1455 FILLER_0_6_109
*1456 FILLER_0_6_121
*1457 FILLER_0_6_133
*1458 FILLER_0_6_139
*1459 FILLER_0_6_141
*1460 FILLER_0_6_15
*1461 FILLER_0_6_153
*1462 FILLER_0_6_165
*1463 FILLER_0_6_177
*1464 FILLER_0_6_189
*1465 FILLER_0_6_195
*1466 FILLER_0_6_197
*1467 FILLER_0_6_209
*1468 FILLER_0_6_221
*1469 FILLER_0_6_233
*1470 FILLER_0_6_245
*1471 FILLER_0_6_251
*1472 FILLER_0_6_253
*1473 FILLER_0_6_265
*1474 FILLER_0_6_27
*1475 FILLER_0_6_277
*1476 FILLER_0_6_289
*1477 FILLER_0_6_29
*1478 FILLER_0_6_3
*1479 FILLER_0_6_301
*1480 FILLER_0_6_307
*1481 FILLER_0_6_309
*1482 FILLER_0_6_321
*1483 FILLER_0_6_333
*1484 FILLER_0_6_345
*1485 FILLER_0_6_41
*1486 FILLER_0_6_53
*1487 FILLER_0_6_65
*1488 FILLER_0_6_77
*1489 FILLER_0_6_83
*1490 FILLER_0_6_85
*1491 FILLER_0_6_97
*1492 FILLER_0_7_105
*1493 FILLER_0_7_111
*1494 FILLER_0_7_113
*1495 FILLER_0_7_125
*1496 FILLER_0_7_137
*1497 FILLER_0_7_149
*1498 FILLER_0_7_15
*1499 FILLER_0_7_161