*SPEF "ieee 1481-1999"
*DESIGN "tt_um_wokwi_374292646686728193"
*DATE "11:11:11 Fri 11 11, 1111"
*VENDOR "OpenRCX"
*PROGRAM "Parallel Extraction"
*VERSION "1.0"
*DESIGN_FLOW "NAME_SCOPE LOCAL" "PIN_CAP NONE"
*DIVIDER /
*DELIMITER :
*BUS_DELIMITER []
*T_UNIT 1 NS
*C_UNIT 1 PF
*R_UNIT 1 OHM
*L_UNIT 1 HENRY

*NAME_MAP
*3 clk
*4 ena
*5 rst_n
*6 ui_in[0]
*7 ui_in[1]
*8 ui_in[2]
*9 ui_in[3]
*10 ui_in[4]
*11 ui_in[5]
*12 ui_in[6]
*13 ui_in[7]
*14 uio_in[0]
*15 uio_in[1]
*16 uio_in[2]
*17 uio_in[3]
*18 uio_in[4]
*19 uio_in[5]
*20 uio_in[6]
*21 uio_in[7]
*22 net17
*23 net18
*24 net19
*25 net20
*26 net21
*27 net22
*28 net23
*29 net24
*30 net25
*31 net26
*32 net27
*33 net28
*34 net29
*35 net30
*36 net31
*37 net32
*38 uo_out[0]
*39 uo_out[1]
*40 uo_out[2]
*41 uo_out[3]
*42 uo_out[4]
*43 uo_out[5]
*44 uo_out[6]
*45 uo_out[7]
*46 _00_
*47 _01_
*48 _02_
*49 _03_
*50 _04_
*51 _05_
*52 _06_
*53 _07_
*54 _08_
*55 _09_
*56 _10_
*57 _11_
*58 _12_
*59 _13_
*60 _14_
*61 _15_
*62 _16_
*63 _17_
*64 _18_
*65 _19_
*66 _20_
*67 _21_
*68 _22_
*69 _23_
*70 _24_
*71 _25_
*72 _26_
*73 net1
*74 net10
*75 net11
*76 net12
*77 net13
*78 net14
*79 net15
*80 net16
*81 net2
*82 net3
*83 net4
*84 net5
*85 net6
*86 net7
*87 net8
*88 net9
*89 xor1\.out
*90 xor13\.out
*91 xor15\.out
*92 xor17\.out
*93 xor3\.out
*94 xor5\.out
*95 xor7\.out
*96 xor9\.out
*97 FILLER_0_0_109
*98 FILLER_0_0_113
*99 FILLER_0_0_125
*100 FILLER_0_0_137
*101 FILLER_0_0_141
*102 FILLER_0_0_15
*103 FILLER_0_0_153
*104 FILLER_0_0_165
*105 FILLER_0_0_169
*106 FILLER_0_0_181
*107 FILLER_0_0_193
*108 FILLER_0_0_197
*109 FILLER_0_0_209
*110 FILLER_0_0_221
*111 FILLER_0_0_225
*112 FILLER_0_0_237
*113 FILLER_0_0_249
*114 FILLER_0_0_253
*115 FILLER_0_0_265
*116 FILLER_0_0_27
*117 FILLER_0_0_277
*118 FILLER_0_0_281
*119 FILLER_0_0_29
*120 FILLER_0_0_293
*121 FILLER_0_0_3
*122 FILLER_0_0_305
*123 FILLER_0_0_309
*124 FILLER_0_0_321
*125 FILLER_0_0_333
*126 FILLER_0_0_337
*127 FILLER_0_0_349
*128 FILLER_0_0_41
*129 FILLER_0_0_53
*130 FILLER_0_0_57
*131 FILLER_0_0_69
*132 FILLER_0_0_81
*133 FILLER_0_0_85
*134 FILLER_0_0_97
*135 FILLER_0_10_109
*136 FILLER_0_10_121
*137 FILLER_0_10_133
*138 FILLER_0_10_139
*139 FILLER_0_10_141
*140 FILLER_0_10_15
*141 FILLER_0_10_153
*142 FILLER_0_10_165
*143 FILLER_0_10_177
*144 FILLER_0_10_189
*145 FILLER_0_10_195
*146 FILLER_0_10_197
*147 FILLER_0_10_209
*148 FILLER_0_10_221
*149 FILLER_0_10_233
*150 FILLER_0_10_245
*151 FILLER_0_10_251
*152 FILLER_0_10_253
*153 FILLER_0_10_265
*154 FILLER_0_10_27
*155 FILLER_0_10_277
*156 FILLER_0_10_289
*157 FILLER_0_10_29
*158 FILLER_0_10_3
*159 FILLER_0_10_301
*160 FILLER_0_10_307
*161 FILLER_0_10_309
*162 FILLER_0_10_321
*163 FILLER_0_10_333
*164 FILLER_0_10_345
*165 FILLER_0_10_41
*166 FILLER_0_10_53
*167 FILLER_0_10_65
*168 FILLER_0_10_77
*169 FILLER_0_10_83
*170 FILLER_0_10_85
*171 FILLER_0_10_97
*172 FILLER_0_11_105
*173 FILLER_0_11_111
*174 FILLER_0_11_113
*175 FILLER_0_11_125
*176 FILLER_0_11_137
*177 FILLER_0_11_149
*178 FILLER_0_11_15
*179 FILLER_0_11_161
*180 FILLER_0_11_167
*181 FILLER_0_11_169
*182 FILLER_0_11_181
*183 FILLER_0_11_193
*184 FILLER_0_11_205
*185 FILLER_0_11_217
*186 FILLER_0_11_223
*187 FILLER_0_11_225
*188 FILLER_0_11_237
*189 FILLER_0_11_249
*190 FILLER_0_11_261
*191 FILLER_0_11_27
*192 FILLER_0_11_273
*193 FILLER_0_11_279
*194 FILLER_0_11_281
*195 FILLER_0_11_293
*196 FILLER_0_11_3
*197 FILLER_0_11_305
*198 FILLER_0_11_317
*199 FILLER_0_11_329
*200 FILLER_0_11_335
*201 FILLER_0_11_337
*202 FILLER_0_11_349
*203 FILLER_0_11_39
*204 FILLER_0_11_51
*205 FILLER_0_11_55
*206 FILLER_0_11_57
*207 FILLER_0_11_69
*208 FILLER_0_11_81
*209 FILLER_0_11_93
*210 FILLER_0_12_109
*211 FILLER_0_12_121
*212 FILLER_0_12_133
*213 FILLER_0_12_139
*214 FILLER_0_12_141
*215 FILLER_0_12_15
*216 FILLER_0_12_153
*217 FILLER_0_12_165
*218 FILLER_0_12_177
*219 FILLER_0_12_189
*220 FILLER_0_12_195
*221 FILLER_0_12_197
*222 FILLER_0_12_209
*223 FILLER_0_12_221
*224 FILLER_0_12_233
*225 FILLER_0_12_245
*226 FILLER_0_12_251
*227 FILLER_0_12_253
*228 FILLER_0_12_265
*229 FILLER_0_12_27
*230 FILLER_0_12_277
*231 FILLER_0_12_289
*232 FILLER_0_12_29
*233 FILLER_0_12_3
*234 FILLER_0_12_301
*235 FILLER_0_12_307
*236 FILLER_0_12_309
*237 FILLER_0_12_321
*238 FILLER_0_12_333
*239 FILLER_0_12_345
*240 FILLER_0_12_41
*241 FILLER_0_12_53
*242 FILLER_0_12_65
*243 FILLER_0_12_77
*244 FILLER_0_12_83
*245 FILLER_0_12_85
*246 FILLER_0_12_97
*247 FILLER_0_13_105
*248 FILLER_0_13_111
*249 FILLER_0_13_113
*250 FILLER_0_13_125
*251 FILLER_0_13_137
*252 FILLER_0_13_149
*253 FILLER_0_13_15
*254 FILLER_0_13_161
*255 FILLER_0_13_167
*256 FILLER_0_13_169
*257 FILLER_0_13_181
*258 FILLER_0_13_193
*259 FILLER_0_13_205
*260 FILLER_0_13_217
*261 FILLER_0_13_223
*262 FILLER_0_13_225
*263 FILLER_0_13_237
*264 FILLER_0_13_249
*265 FILLER_0_13_261
*266 FILLER_0_13_27
*267 FILLER_0_13_273
*268 FILLER_0_13_279
*269 FILLER_0_13_281
*270 FILLER_0_13_293
*271 FILLER_0_13_3
*272 FILLER_0_13_305
*273 FILLER_0_13_317
*274 FILLER_0_13_329
*275 FILLER_0_13_335
*276 FILLER_0_13_337
*277 FILLER_0_13_349
*278 FILLER_0_13_39
*279 FILLER_0_13_51
*280 FILLER_0_13_55
*281 FILLER_0_13_57
*282 FILLER_0_13_69
*283 FILLER_0_13_81
*284 FILLER_0_13_93
*285 FILLER_0_14_109
*286 FILLER_0_14_121
*287 FILLER_0_14_133
*288 FILLER_0_14_139
*289 FILLER_0_14_141
*290 FILLER_0_14_15
*291 FILLER_0_14_153
*292 FILLER_0_14_165
*293 FILLER_0_14_177
*294 FILLER_0_14_189
*295 FILLER_0_14_195
*296 FILLER_0_14_197
*297 FILLER_0_14_209
*298 FILLER_0_14_221
*299 FILLER_0_14_233
*300 FILLER_0_14_245
*301 FILLER_0_14_251
*302 FILLER_0_14_253
*303 FILLER_0_14_265
*304 FILLER_0_14_27
*305 FILLER_0_14_277
*306 FILLER_0_14_289
*307 FILLER_0_14_29
*308 FILLER_0_14_3
*309 FILLER_0_14_301
*310 FILLER_0_14_307
*311 FILLER_0_14_309
*312 FILLER_0_14_321
*313 FILLER_0_14_333
*314 FILLER_0_14_345
*315 FILLER_0_14_41
*316 FILLER_0_14_53
*317 FILLER_0_14_65
*318 FILLER_0_14_77
*319 FILLER_0_14_83
*320 FILLER_0_14_85
*321 FILLER_0_14_97
*322 FILLER_0_15_105
*323 FILLER_0_15_111
*324 FILLER_0_15_113
*325 FILLER_0_15_125
*326 FILLER_0_15_137
*327 FILLER_0_15_149
*328 FILLER_0_15_15
*329 FILLER_0_15_161
*330 FILLER_0_15_167
*331 FILLER_0_15_169
*332 FILLER_0_15_181
*333 FILLER_0_15_193
*334 FILLER_0_15_205
*335 FILLER_0_15_217
*336 FILLER_0_15_223
*337 FILLER_0_15_225
*338 FILLER_0_15_237
*339 FILLER_0_15_249
*340 FILLER_0_15_261
*341 FILLER_0_15_27
*342 FILLER_0_15_273
*343 FILLER_0_15_279
*344 FILLER_0_15_281
*345 FILLER_0_15_293
*346 FILLER_0_15_3
*347 FILLER_0_15_305
*348 FILLER_0_15_317
*349 FILLER_0_15_329
*350 FILLER_0_15_335
*351 FILLER_0_15_337
*352 FILLER_0_15_349
*353 FILLER_0_15_39
*354 FILLER_0_15_51
*355 FILLER_0_15_55
*356 FILLER_0_15_57
*357 FILLER_0_15_69
*358 FILLER_0_15_81
*359 FILLER_0_15_93
*360 FILLER_0_16_109
*361 FILLER_0_16_121
*362 FILLER_0_16_133
*363 FILLER_0_16_139
*364 FILLER_0_16_141
*365 FILLER_0_16_15
*366 FILLER_0_16_153
*367 FILLER_0_16_165
*368 FILLER_0_16_177
*369 FILLER_0_16_189
*370 FILLER_0_16_195
*371 FILLER_0_16_197
*372 FILLER_0_16_209
*373 FILLER_0_16_221
*374 FILLER_0_16_233
*375 FILLER_0_16_245
*376 FILLER_0_16_251
*377 FILLER_0_16_253
*378 FILLER_0_16_265
*379 FILLER_0_16_27
*380 FILLER_0_16_277
*381 FILLER_0_16_289
*382 FILLER_0_16_29
*383 FILLER_0_16_3
*384 FILLER_0_16_301
*385 FILLER_0_16_307
*386 FILLER_0_16_309
*387 FILLER_0_16_321
*388 FILLER_0_16_333
*389 FILLER_0_16_345
*390 FILLER_0_16_41
*391 FILLER_0_16_53
*392 FILLER_0_16_65
*393 FILLER_0_16_77
*394 FILLER_0_16_83
*395 FILLER_0_16_85
*396 FILLER_0_16_97
*397 FILLER_0_17_105
*398 FILLER_0_17_111
*399 FILLER_0_17_113
*400 FILLER_0_17_125
*401 FILLER_0_17_137
*402 FILLER_0_17_149
*403 FILLER_0_17_15
*404 FILLER_0_17_161
*405 FILLER_0_17_167
*406 FILLER_0_17_169
*407 FILLER_0_17_181
*408 FILLER_0_17_193
*409 FILLER_0_17_205
*410 FILLER_0_17_217
*411 FILLER_0_17_223
*412 FILLER_0_17_225
*413 FILLER_0_17_237
*414 FILLER_0_17_249
*415 FILLER_0_17_261
*416 FILLER_0_17_27
*417 FILLER_0_17_273
*418 FILLER_0_17_279
*419 FILLER_0_17_281
*420 FILLER_0_17_293
*421 FILLER_0_17_3
*422 FILLER_0_17_305
*423 FILLER_0_17_317
*424 FILLER_0_17_329
*425 FILLER_0_17_335
*426 FILLER_0_17_337
*427 FILLER_0_17_349
*428 FILLER_0_17_39
*429 FILLER_0_17_51
*430 FILLER_0_17_55
*431 FILLER_0_17_57
*432 FILLER_0_17_69
*433 FILLER_0_17_81
*434 FILLER_0_17_93
*435 FILLER_0_18_109
*436 FILLER_0_18_121
*437 FILLER_0_18_133
*438 FILLER_0_18_139
*439 FILLER_0_18_141
*440 FILLER_0_18_15
*441 FILLER_0_18_153
*442 FILLER_0_18_165
*443 FILLER_0_18_177
*444 FILLER_0_18_189
*445 FILLER_0_18_195
*446 FILLER_0_18_197
*447 FILLER_0_18_209
*448 FILLER_0_18_221
*449 FILLER_0_18_233
*450 FILLER_0_18_245
*451 FILLER_0_18_251
*452 FILLER_0_18_253
*453 FILLER_0_18_265
*454 FILLER_0_18_27
*455 FILLER_0_18_277
*456 FILLER_0_18_289
*457 FILLER_0_18_29
*458 FILLER_0_18_3
*459 FILLER_0_18_301
*460 FILLER_0_18_307
*461 FILLER_0_18_309
*462 FILLER_0_18_321
*463 FILLER_0_18_333
*464 FILLER_0_18_345
*465 FILLER_0_18_41
*466 FILLER_0_18_53
*467 FILLER_0_18_65
*468 FILLER_0_18_77
*469 FILLER_0_18_83
*470 FILLER_0_18_85
*471 FILLER_0_18_97
*472 FILLER_0_19_105
*473 FILLER_0_19_111
*474 FILLER_0_19_113
*475 FILLER_0_19_125
*476 FILLER_0_19_137
*477 FILLER_0_19_149
*478 FILLER_0_19_15
*479 FILLER_0_19_161
*480 FILLER_0_19_167
*481 FILLER_0_19_169
*482 FILLER_0_19_181
*483 FILLER_0_19_193
*484 FILLER_0_19_205
*485 FILLER_0_19_217
*486 FILLER_0_19_223
*487 FILLER_0_19_225
*488 FILLER_0_19_237
*489 FILLER_0_19_249
*490 FILLER_0_19_261
*491 FILLER_0_19_27
*492 FILLER_0_19_273
*493 FILLER_0_19_279
*494 FILLER_0_19_281
*495 FILLER_0_19_293
*496 FILLER_0_19_3
*497 FILLER_0_19_305
*498 FILLER_0_19_317
*499 FILLER_0_19_329
*500 FILLER_0_19_335
*501 FILLER_0_19_337
*502 FILLER_0_19_349
*503 FILLER_0_19_39
*504 FILLER_0_19_51
*505 FILLER_0_19_55
*506 FILLER_0_19_57
*507 FILLER_0_19_69
*508 FILLER_0_19_81
*509 FILLER_0_19_93
*510 FILLER_0_1_105
*511 FILLER_0_1_111
*512 FILLER_0_1_113
*513 FILLER_0_1_125
*514 FILLER_0_1_137
*515 FILLER_0_1_149
*516 FILLER_0_1_15
*517 FILLER_0_1_161
*518 FILLER_0_1_167
*519 FILLER_0_1_169
*520 FILLER_0_1_181
*521 FILLER_0_1_193
*522 FILLER_0_1_205
*523 FILLER_0_1_217
*524 FILLER_0_1_223
*525 FILLER_0_1_225
*526 FILLER_0_1_237
*527 FILLER_0_1_249
*528 FILLER_0_1_261
*529 FILLER_0_1_27
*530 FILLER_0_1_273
*531 FILLER_0_1_279
*532 FILLER_0_1_281
*533 FILLER_0_1_293
*534 FILLER_0_1_3
*535 FILLER_0_1_305
*536 FILLER_0_1_317
*537 FILLER_0_1_329
*538 FILLER_0_1_335
*539 FILLER_0_1_337
*540 FILLER_0_1_349
*541 FILLER_0_1_39
*542 FILLER_0_1_51
*543 FILLER_0_1_55
*544 FILLER_0_1_57
*545 FILLER_0_1_69
*546 FILLER_0_1_81
*547 FILLER_0_1_93
*548 FILLER_0_20_109
*549 FILLER_0_20_121
*550 FILLER_0_20_133
*551 FILLER_0_20_139
*552 FILLER_0_20_141
*553 FILLER_0_20_15
*554 FILLER_0_20_153
*555 FILLER_0_20_165
*556 FILLER_0_20_177
*557 FILLER_0_20_189
*558 FILLER_0_20_195
*559 FILLER_0_20_197
*560 FILLER_0_20_209
*561 FILLER_0_20_221
*562 FILLER_0_20_233
*563 FILLER_0_20_245
*564 FILLER_0_20_251
*565 FILLER_0_20_253
*566 FILLER_0_20_265
*567 FILLER_0_20_27
*568 FILLER_0_20_277
*569 FILLER_0_20_289
*570 FILLER_0_20_29
*571 FILLER_0_20_3
*572 FILLER_0_20_301
*573 FILLER_0_20_307
*574 FILLER_0_20_309
*575 FILLER_0_20_321
*576 FILLER_0_20_333
*577 FILLER_0_20_345
*578 FILLER_0_20_41
*579 FILLER_0_20_53
*580 FILLER_0_20_65
*581 FILLER_0_20_77
*582 FILLER_0_20_83
*583 FILLER_0_20_85
*584 FILLER_0_20_97
*585 FILLER_0_21_105
*586 FILLER_0_21_111
*587 FILLER_0_21_113
*588 FILLER_0_21_125
*589 FILLER_0_21_137
*590 FILLER_0_21_149
*591 FILLER_0_21_15
*592 FILLER_0_21_161
*593 FILLER_0_21_167
*594 FILLER_0_21_169
*595 FILLER_0_21_181
*596 FILLER_0_21_193
*597 FILLER_0_21_205
*598 FILLER_0_21_217
*599 FILLER_0_21_223
*600 FILLER_0_21_225
*601 FILLER_0_21_237
*602 FILLER_0_21_249
*603 FILLER_0_21_261
*604 FILLER_0_21_27
*605 FILLER_0_21_273
*606 FILLER_0_21_279
*607 FILLER_0_21_281
*608 FILLER_0_21_293
*609 FILLER_0_21_3
*610 FILLER_0_21_305
*611 FILLER_0_21_317
*612 FILLER_0_21_329
*613 FILLER_0_21_335
*614 FILLER_0_21_337
*615 FILLER_0_21_349
*616 FILLER_0_21_39
*617 FILLER_0_21_51
*618 FILLER_0_21_55
*619 FILLER_0_21_57
*620 FILLER_0_21_69
*621 FILLER_0_21_81
*622 FILLER_0_21_93
*623 FILLER_0_22_109
*624 FILLER_0_22_121
*625 FILLER_0_22_133
*626 FILLER_0_22_139
*627 FILLER_0_22_141
*628 FILLER_0_22_15
*629 FILLER_0_22_153
*630 FILLER_0_22_165
*631 FILLER_0_22_177
*632 FILLER_0_22_189
*633 FILLER_0_22_195
*634 FILLER_0_22_197
*635 FILLER_0_22_209
*636 FILLER_0_22_221
*637 FILLER_0_22_233
*638 FILLER_0_22_245
*639 FILLER_0_22_251
*640 FILLER_0_22_253
*641 FILLER_0_22_265
*642 FILLER_0_22_27
*643 FILLER_0_22_277
*644 FILLER_0_22_289
*645 FILLER_0_22_29
*646 FILLER_0_22_3
*647 FILLER_0_22_301
*648 FILLER_0_22_307
*649 FILLER_0_22_309
*650 FILLER_0_22_321
*651 FILLER_0_22_333
*652 FILLER_0_22_345
*653 FILLER_0_22_41
*654 FILLER_0_22_53
*655 FILLER_0_22_65
*656 FILLER_0_22_77
*657 FILLER_0_22_83
*658 FILLER_0_22_85
*659 FILLER_0_22_97
*660 FILLER_0_23_105
*661 FILLER_0_23_111
*662 FILLER_0_23_113
*663 FILLER_0_23_125
*664 FILLER_0_23_137
*665 FILLER_0_23_149
*666 FILLER_0_23_15
*667 FILLER_0_23_161
*668 FILLER_0_23_167
*669 FILLER_0_23_169
*670 FILLER_0_23_181
*671 FILLER_0_23_193
*672 FILLER_0_23_205
*673 FILLER_0_23_217
*674 FILLER_0_23_223
*675 FILLER_0_23_225
*676 FILLER_0_23_237
*677 FILLER_0_23_249
*678 FILLER_0_23_261
*679 FILLER_0_23_27
*680 FILLER_0_23_273
*681 FILLER_0_23_279
*682 FILLER_0_23_281
*683 FILLER_0_23_293
*684 FILLER_0_23_3
*685 FILLER_0_23_305
*686 FILLER_0_23_317
*687 FILLER_0_23_329
*688 FILLER_0_23_335
*689 FILLER_0_23_337
*690 FILLER_0_23_349
*691 FILLER_0_23_39
*692 FILLER_0_23_51
*693 FILLER_0_23_55
*694 FILLER_0_23_57
*695 FILLER_0_23_69
*696 FILLER_0_23_81
*697 FILLER_0_23_93
*698 FILLER_0_24_109
*699 FILLER_0_24_121
*700 FILLER_0_24_133
*701 FILLER_0_24_139
*702 FILLER_0_24_141
*703 FILLER_0_24_15
*704 FILLER_0_24_153
*705 FILLER_0_24_165
*706 FILLER_0_24_177
*707 FILLER_0_24_189
*708 FILLER_0_24_195
*709 FILLER_0_24_197
*710 FILLER_0_24_209
*711 FILLER_0_24_221
*712 FILLER_0_24_233
*713 FILLER_0_24_245
*714 FILLER_0_24_251
*715 FILLER_0_24_253
*716 FILLER_0_24_265
*717 FILLER_0_24_27
*718 FILLER_0_24_277
*719 FILLER_0_24_289
*720 FILLER_0_24_29
*721 FILLER_0_24_3
*722 FILLER_0_24_301
*723 FILLER_0_24_307
*724 FILLER_0_24_309
*725 FILLER_0_24_321
*726 FILLER_0_24_333
*727 FILLER_0_24_345
*728 FILLER_0_24_41
*729 FILLER_0_24_53
*730 FILLER_0_24_65
*731 FILLER_0_24_77
*732 FILLER_0_24_83
*733 FILLER_0_24_85
*734 FILLER_0_24_97
*735 FILLER_0_25_105
*736 FILLER_0_25_111
*737 FILLER_0_25_113
*738 FILLER_0_25_125
*739 FILLER_0_25_137
*740 FILLER_0_25_149
*741 FILLER_0_25_15
*742 FILLER_0_25_161
*743 FILLER_0_25_167
*744 FILLER_0_25_169
*745 FILLER_0_25_181
*746 FILLER_0_25_193
*747 FILLER_0_25_205
*748 FILLER_0_25_217
*749 FILLER_0_25_223
*750 FILLER_0_25_225
*751 FILLER_0_25_237
*752 FILLER_0_25_249
*753 FILLER_0_25_261
*754 FILLER_0_25_27
*755 FILLER_0_25_273
*756 FILLER_0_25_279
*757 FILLER_0_25_281
*758 FILLER_0_25_293
*759 FILLER_0_25_3
*760 FILLER_0_25_305
*761 FILLER_0_25_317
*762 FILLER_0_25_329
*763 FILLER_0_25_335
*764 FILLER_0_25_337
*765 FILLER_0_25_349
*766 FILLER_0_25_39
*767 FILLER_0_25_51
*768 FILLER_0_25_55
*769 FILLER_0_25_57
*770 FILLER_0_25_69
*771 FILLER_0_25_81
*772 FILLER_0_25_93
*773 FILLER_0_26_109
*774 FILLER_0_26_121
*775 FILLER_0_26_133
*776 FILLER_0_26_139
*777 FILLER_0_26_141
*778 FILLER_0_26_15
*779 FILLER_0_26_153
*780 FILLER_0_26_165
*781 FILLER_0_26_177
*782 FILLER_0_26_189
*783 FILLER_0_26_195
*784 FILLER_0_26_197
*785 FILLER_0_26_209
*786 FILLER_0_26_221
*787 FILLER_0_26_233
*788 FILLER_0_26_245
*789 FILLER_0_26_251
*790 FILLER_0_26_253
*791 FILLER_0_26_265
*792 FILLER_0_26_27
*793 FILLER_0_26_277
*794 FILLER_0_26_289
*795 FILLER_0_26_29
*796 FILLER_0_26_3
*797 FILLER_0_26_301
*798 FILLER_0_26_307
*799 FILLER_0_26_309
*800 FILLER_0_26_321
*801 FILLER_0_26_333
*802 FILLER_0_26_345
*803 FILLER_0_26_41
*804 FILLER_0_26_53
*805 FILLER_0_26_65
*806 FILLER_0_26_77
*807 FILLER_0_26_83
*808 FILLER_0_26_85
*809 FILLER_0_26_97
*810 FILLER_0_27_105
*811 FILLER_0_27_111
*812 FILLER_0_27_113
*813 FILLER_0_27_125
*814 FILLER_0_27_137
*815 FILLER_0_27_149
*816 FILLER_0_27_15
*817 FILLER_0_27_161
*818 FILLER_0_27_167
*819 FILLER_0_27_169
*820 FILLER_0_27_181
*821 FILLER_0_27_193
*822 FILLER_0_27_205
*823 FILLER_0_27_217
*824 FILLER_0_27_223
*825 FILLER_0_27_225
*826 FILLER_0_27_237
*827 FILLER_0_27_249
*828 FILLER_0_27_261
*829 FILLER_0_27_27
*830 FILLER_0_27_273
*831 FILLER_0_27_279
*832 FILLER_0_27_281
*833 FILLER_0_27_293
*834 FILLER_0_27_3
*835 FILLER_0_27_305
*836 FILLER_0_27_317
*837 FILLER_0_27_329
*838 FILLER_0_27_335
*839 FILLER_0_27_337
*840 FILLER_0_27_349
*841 FILLER_0_27_39
*842 FILLER_0_27_51
*843 FILLER_0_27_55
*844 FILLER_0_27_57
*845 FILLER_0_27_69
*846 FILLER_0_27_81
*847 FILLER_0_27_93
*848 FILLER_0_28_109
*849 FILLER_0_28_121
*850 FILLER_0_28_133
*851 FILLER_0_28_139
*852 FILLER_0_28_141
*853 FILLER_0_28_15
*854 FILLER_0_28_153
*855 FILLER_0_28_165
*856 FILLER_0_28_177
*857 FILLER_0_28_189
*858 FILLER_0_28_195
*859 FILLER_0_28_197
*860 FILLER_0_28_209
*861 FILLER_0_28_221
*862 FILLER_0_28_233
*863 FILLER_0_28_245
*864 FILLER_0_28_251
*865 FILLER_0_28_253
*866 FILLER_0_28_265
*867 FILLER_0_28_27
*868 FILLER_0_28_277
*869 FILLER_0_28_289
*870 FILLER_0_28_29
*871 FILLER_0_28_3
*872 FILLER_0_28_301
*873 FILLER_0_28_307
*874 FILLER_0_28_309
*875 FILLER_0_28_321
*876 FILLER_0_28_333
*877 FILLER_0_28_345
*878 FILLER_0_28_41
*879 FILLER_0_28_53
*880 FILLER_0_28_65
*881 FILLER_0_28_77
*882 FILLER_0_28_83
*883 FILLER_0_28_85
*884 FILLER_0_28_97
*885 FILLER_0_29_105
*886 FILLER_0_29_111
*887 FILLER_0_29_113
*888 FILLER_0_29_125
*889 FILLER_0_29_137
*890 FILLER_0_29_149
*891 FILLER_0_29_15
*892 FILLER_0_29_161
*893 FILLER_0_29_167
*894 FILLER_0_29_169
*895 FILLER_0_29_181
*896 FILLER_0_29_193
*897 FILLER_0_29_205
*898 FILLER_0_29_217
*899 FILLER_0_29_223
*900 FILLER_0_29_225
*901 FILLER_0_29_237
*902 FILLER_0_29_249
*903 FILLER_0_29_261
*904 FILLER_0_29_27
*905 FILLER_0_29_273
*906 FILLER_0_29_279
*907 FILLER_0_29_281
*908 FILLER_0_29_293
*909 FILLER_0_29_3
*910 FILLER_0_29_305
*911 FILLER_0_29_317
*912 FILLER_0_29_329
*913 FILLER_0_29_335
*914 FILLER_0_29_337
*915 FILLER_0_29_349
*916 FILLER_0_29_39
*917 FILLER_0_29_51
*918 FILLER_0_29_55
*919 FILLER_0_29_57
*920 FILLER_0_29_69
*921 FILLER_0_29_81
*922 FILLER_0_29_93
*923 FILLER_0_2_109
*924 FILLER_0_2_121
*925 FILLER_0_2_133
*926 FILLER_0_2_139
*927 FILLER_0_2_141
*928 FILLER_0_2_15
*929 FILLER_0_2_153
*930 FILLER_0_2_165
*931 FILLER_0_2_177
*932 FILLER_0_2_189
*933 FILLER_0_2_195
*934 FILLER_0_2_197
*935 FILLER_0_2_209
*936 FILLER_0_2_221
*937 FILLER_0_2_233
*938 FILLER_0_2_245
*939 FILLER_0_2_251
*940 FILLER_0_2_253
*941 FILLER_0_2_265
*942 FILLER_0_2_27
*943 FILLER_0_2_277
*944 FILLER_0_2_289
*945 FILLER_0_2_29
*946 FILLER_0_2_3
*947 FILLER_0_2_301
*948 FILLER_0_2_307
*949 FILLER_0_2_309
*950 FILLER_0_2_321
*951 FILLER_0_2_333
*952 FILLER_0_2_345
*953 FILLER_0_2_41
*954 FILLER_0_2_53
*955 FILLER_0_2_65
*956 FILLER_0_2_77
*957 FILLER_0_2_83
*958 FILLER_0_2_85
*959 FILLER_0_2_97
*960 FILLER_0_30_109
*961 FILLER_0_30_121
*962 FILLER_0_30_133
*963 FILLER_0_30_139
*964 FILLER_0_30_141
*965 FILLER_0_30_15
*966 FILLER_0_30_153
*967 FILLER_0_30_165
*968 FILLER_0_30_177
*969 FILLER_0_30_189
*970 FILLER_0_30_195
*971 FILLER_0_30_197
*972 FILLER_0_30_209
*973 FILLER_0_30_221
*974 FILLER_0_30_233
*975 FILLER_0_30_245
*976 FILLER_0_30_251
*977 FILLER_0_30_253
*978 FILLER_0_30_265
*979 FILLER_0_30_27
*980 FILLER_0_30_277
*981 FILLER_0_30_289
*982 FILLER_0_30_29
*983 FILLER_0_30_3
*984 FILLER_0_30_301
*985 FILLER_0_30_307
*986 FILLER_0_30_309
*987 FILLER_0_30_321
*988 FILLER_0_30_333
*989 FILLER_0_30_345
*990 FILLER_0_30_41
*991 FILLER_0_30_53
*992 FILLER_0_30_65
*993 FILLER_0_30_77
*994 FILLER_0_30_83
*995 FILLER_0_30_85
*996 FILLER_0_30_97
*997 FILLER_0_31_105
*998 FILLER_0_31_111
*999 FILLER_0_31_113
*1000 FILLER_0_31_125
*1001 FILLER_0_31_137
*1002 FILLER_0_31_149
*1003 FILLER_0_31_15
*1004 FILLER_0_31_161
*1005 FILLER_0_31_167
*1006 FILLER_0_31_169
*1007 FILLER_0_31_181
*1008 FILLER_0_31_193
*1009 FILLER_0_31_205
*1010 FILLER_0_31_217
*1011 FILLER_0_31_223
*1012 FILLER_0_31_225
*1013 FILLER_0_31_237
*1014 FILLER_0_31_249
*1015 FILLER_0_31_261
*1016 FILLER_0_31_27
*1017 FILLER_0_31_273
*1018 FILLER_0_31_279
*1019 FILLER_0_31_281
*1020 FILLER_0_31_293
*1021 FILLER_0_31_3
*1022 FILLER_0_31_305
*1023 FILLER_0_31_317
*1024 FILLER_0_31_329
*1025 FILLER_0_31_335
*1026 FILLER_0_31_337
*1027 FILLER_0_31_349
*1028 FILLER_0_31_39
*1029 FILLER_0_31_51
*1030 FILLER_0_31_55
*1031 FILLER_0_31_57
*1032 FILLER_0_31_69
*1033 FILLER_0_31_81
*1034 FILLER_0_31_93
*1035 FILLER_0_32_109
*1036 FILLER_0_32_121
*1037 FILLER_0_32_133
*1038 FILLER_0_32_139
*1039 FILLER_0_32_141
*1040 FILLER_0_32_15
*1041 FILLER_0_32_153
*1042 FILLER_0_32_165
*1043 FILLER_0_32_177
*1044 FILLER_0_32_189
*1045 FILLER_0_32_195
*1046 FILLER_0_32_197
*1047 FILLER_0_32_209
*1048 FILLER_0_32_221
*1049 FILLER_0_32_233
*1050 FILLER_0_32_245
*1051 FILLER_0_32_251
*1052 FILLER_0_32_253
*1053 FILLER_0_32_265
*1054 FILLER_0_32_27
*1055 FILLER_0_32_277
*1056 FILLER_0_32_289
*1057 FILLER_0_32_29
*1058 FILLER_0_32_3
*1059 FILLER_0_32_301
*1060 FILLER_0_32_307
*1061 FILLER_0_32_309
*1062 FILLER_0_32_321
*1063 FILLER_0_32_333
*1064 FILLER_0_32_345
*1065 FILLER_0_32_41
*1066 FILLER_0_32_53
*1067 FILLER_0_32_65
*1068 FILLER_0_32_77
*1069 FILLER_0_32_83
*1070 FILLER_0_32_85
*1071 FILLER_0_32_97
*1072 FILLER_0_33_105
*1073 FILLER_0_33_111
*1074 FILLER_0_33_113
*1075 FILLER_0_33_125
*1076 FILLER_0_33_137
*1077 FILLER_0_33_149
*1078 FILLER_0_33_15
*1079 FILLER_0_33_161
*1080 FILLER_0_33_167
*1081 FILLER_0_33_169
*1082 FILLER_0_33_181
*1083 FILLER_0_33_193
*1084 FILLER_0_33_205
*1085 FILLER_0_33_217
*1086 FILLER_0_33_223
*1087 FILLER_0_33_225
*1088 FILLER_0_33_237
*1089 FILLER_0_33_249
*1090 FILLER_0_33_261
*1091 FILLER_0_33_27
*1092 FILLER_0_33_273
*1093 FILLER_0_33_279
*1094 FILLER_0_33_281
*1095 FILLER_0_33_293
*1096 FILLER_0_33_3
*1097 FILLER_0_33_305
*1098 FILLER_0_33_317
*1099 FILLER_0_33_329
*1100 FILLER_0_33_335
*1101 FILLER_0_33_337
*1102 FILLER_0_33_349
*1103 FILLER_0_33_39
*1104 FILLER_0_33_51
*1105 FILLER_0_33_55
*1106 FILLER_0_33_57
*1107 FILLER_0_33_69
*1108 FILLER_0_33_81
*1109 FILLER_0_33_93
*1110 FILLER_0_34_109
*1111 FILLER_0_34_121
*1112 FILLER_0_34_133
*1113 FILLER_0_34_139
*1114 FILLER_0_34_141
*1115 FILLER_0_34_15
*1116 FILLER_0_34_153
*1117 FILLER_0_34_165
*1118 FILLER_0_34_177
*1119 FILLER_0_34_189
*1120 FILLER_0_34_195
*1121 FILLER_0_34_197
*1122 FILLER_0_34_209
*1123 FILLER_0_34_221
*1124 FILLER_0_34_233
*1125 FILLER_0_34_245
*1126 FILLER_0_34_251
*1127 FILLER_0_34_253
*1128 FILLER_0_34_265
*1129 FILLER_0_34_27
*1130 FILLER_0_34_277
*1131 FILLER_0_34_289
*1132 FILLER_0_34_29
*1133 FILLER_0_34_3
*1134 FILLER_0_34_301
*1135 FILLER_0_34_307
*1136 FILLER_0_34_309
*1137 FILLER_0_34_321
*1138 FILLER_0_34_333
*1139 FILLER_0_34_345
*1140 FILLER_0_34_41
*1141 FILLER_0_34_53
*1142 FILLER_0_34_65
*1143 FILLER_0_34_77
*1144 FILLER_0_34_83
*1145 FILLER_0_34_85
*1146 FILLER_0_34_97
*1147 FILLER_0_35_105
*1148 FILLER_0_35_111
*1149 FILLER_0_35_113
*1150 FILLER_0_35_125
*1151 FILLER_0_35_137
*1152 FILLER_0_35_149
*1153 FILLER_0_35_15
*1154 FILLER_0_35_161
*1155 FILLER_0_35_167
*1156 FILLER_0_35_169
*1157 FILLER_0_35_181
*1158 FILLER_0_35_193
*1159 FILLER_0_35_205
*1160 FILLER_0_35_217
*1161 FILLER_0_35_223
*1162 FILLER_0_35_225
*1163 FILLER_0_35_240
*1164 FILLER_0_35_252
*1165 FILLER_0_35_264
*1166 FILLER_0_35_27
*1167 FILLER_0_35_276
*1168 FILLER_0_35_281
*1169 FILLER_0_35_293
*1170 FILLER_0_35_3
*1171 FILLER_0_35_305
*1172 FILLER_0_35_317
*1173 FILLER_0_35_329
*1174 FILLER_0_35_335
*1175 FILLER_0_35_337
*1176 FILLER_0_35_349
*1177 FILLER_0_35_39
*1178 FILLER_0_35_51
*1179 FILLER_0_35_55
*1180 FILLER_0_35_57
*1181 FILLER_0_35_69
*1182 FILLER_0_35_81
*1183 FILLER_0_35_93
*1184 FILLER_0_36_109
*1185 FILLER_0_36_121
*1186 FILLER_0_36_133
*1187 FILLER_0_36_139
*1188 FILLER_0_36_141
*1189 FILLER_0_36_15
*1190 FILLER_0_36_153
*1191 FILLER_0_36_161
*1192 FILLER_0_36_169
*1193 FILLER_0_36_179
*1194 FILLER_0_36_192
*1195 FILLER_0_36_197
*1196 FILLER_0_36_216
*1197 FILLER_0_36_220
*1198 FILLER_0_36_232
*1199 FILLER_0_36_245
*1200 FILLER_0_36_251
*1201 FILLER_0_36_260
*1202 FILLER_0_36_268
*1203 FILLER_0_36_27
*1204 FILLER_0_36_284
*1205 FILLER_0_36_29
*1206 FILLER_0_36_296
*1207 FILLER_0_36_3
*1208 FILLER_0_36_309
*1209 FILLER_0_36_321
*1210 FILLER_0_36_333
*1211 FILLER_0_36_345
*1212 FILLER_0_36_41
*1213 FILLER_0_36_53
*1214 FILLER_0_36_65
*1215 FILLER_0_36_77
*1216 FILLER_0_36_83
*1217 FILLER_0_36_85
*1218 FILLER_0_36_97
*1219 FILLER_0_37_105
*1220 FILLER_0_37_111
*1221 FILLER_0_37_113
*1222 FILLER_0_37_125
*1223 FILLER_0_37_137
*1224 FILLER_0_37_149
*1225 FILLER_0_37_15
*1226 FILLER_0_37_153
*1227 FILLER_0_37_158
*1228 FILLER_0_37_166
*1229 FILLER_0_37_174
*1230 FILLER_0_37_184
*1231 FILLER_0_37_196
*1232 FILLER_0_37_208
*1233 FILLER_0_37_214
*1234 FILLER_0_37_218
*1235 FILLER_0_37_222
*1236 FILLER_0_37_225
*1237 FILLER_0_37_230
*1238 FILLER_0_37_242
*1239 FILLER_0_37_250
*1240 FILLER_0_37_262
*1241 FILLER_0_37_266
*1242 FILLER_0_37_27
*1243 FILLER_0_37_270
*1244 FILLER_0_37_274
*1245 FILLER_0_37_278
*1246 FILLER_0_37_287
*1247 FILLER_0_37_298
*1248 FILLER_0_37_3
*1249 FILLER_0_37_310
*1250 FILLER_0_37_322
*1251 FILLER_0_37_334
*1252 FILLER_0_37_337
*1253 FILLER_0_37_349
*1254 FILLER_0_37_39
*1255 FILLER_0_37_51
*1256 FILLER_0_37_55
*1257 FILLER_0_37_57
*1258 FILLER_0_37_69
*1259 FILLER_0_37_81
*1260 FILLER_0_37_93
*1261 FILLER_0_38_102
*1262 FILLER_0_38_106
*1263 FILLER_0_38_110
*1264 FILLER_0_38_113
*1265 FILLER_0_38_118
*1266 FILLER_0_38_122
*1267 FILLER_0_38_126
*1268 FILLER_0_38_130
*1269 FILLER_0_38_134
*1270 FILLER_0_38_14
*1271 FILLER_0_38_141
*1272 FILLER_0_38_146
*1273 FILLER_0_38_155
*1274 FILLER_0_38_167
*1275 FILLER_0_38_169
*1276 FILLER_0_38_18
*1277 FILLER_0_38_180
*1278 FILLER_0_38_188
*1279 FILLER_0_38_22
*1280 FILLER_0_38_223
*1281 FILLER_0_38_225
*1282 FILLER_0_38_234
*1283 FILLER_0_38_250
*1284 FILLER_0_38_267
*1285 FILLER_0_38_279
*1286 FILLER_0_38_3
*1287 FILLER_0_38_312
*1288 FILLER_0_38_318
*1289 FILLER_0_38_32
*1290 FILLER_0_38_322
*1291 FILLER_0_38_326
*1292 FILLER_0_38_334
*1293 FILLER_0_38_337
*1294 FILLER_0_38_349
*1295 FILLER_0_38_38
*1296 FILLER_0_38_42
*1297 FILLER_0_38_46
*1298 FILLER_0_38_50
*1299 FILLER_0_38_54
*1300 FILLER_0_38_57
*1301 FILLER_0_38_62
*1302 FILLER_0_38_66
*1303 FILLER_0_38_70
*1304 FILLER_0_38_74
*1305 FILLER_0_38_78
*1306 FILLER_0_38_88
*1307 FILLER_0_38_94
*1308 FILLER_0_38_98
*1309 FILLER_0_3_105
*1310 FILLER_0_3_111
*1311 FILLER_0_3_113
*1312 FILLER_0_3_125
*1313 FILLER_0_3_137
*1314 FILLER_0_3_149
*1315 FILLER_0_3_15
*1316 FILLER_0_3_161
*1317 FILLER_0_3_167
*1318 FILLER_0_3_169
*1319 FILLER_0_3_181
*1320 FILLER_0_3_193
*1321 FILLER_0_3_205
*1322 FILLER_0_3_217
*1323 FILLER_0_3_223
*1324 FILLER_0_3_225
*1325 FILLER_0_3_237
*1326 FILLER_0_3_249
*1327 FILLER_0_3_261
*1328 FILLER_0_3_27
*1329 FILLER_0_3_273
*1330 FILLER_0_3_279
*1331 FILLER_0_3_281
*1332 FILLER_0_3_293
*1333 FILLER_0_3_3
*1334 FILLER_0_3_305
*1335 FILLER_0_3_317
*1336 FILLER_0_3_329
*1337 FILLER_0_3_335
*1338 FILLER_0_3_337
*1339 FILLER_0_3_349
*1340 FILLER_0_3_39
*1341 FILLER_0_3_51
*1342 FILLER_0_3_55
*1343 FILLER_0_3_57
*1344 FILLER_0_3_69
*1345 FILLER_0_3_81
*1346 FILLER_0_3_93
*1347 FILLER_0_4_109
*1348 FILLER_0_4_121
*1349 FILLER_0_4_133
*1350 FILLER_0_4_139
*1351 FILLER_0_4_141
*1352 FILLER_0_4_15
*1353 FILLER_0_4_153
*1354 FILLER_0_4_165
*1355 FILLER_0_4_177
*1356 FILLER_0_4_189
*1357 FILLER_0_4_195
*1358 FILLER_0_4_197
*1359 FILLER_0_4_209
*1360 FILLER_0_4_221
*1361 FILLER_0_4_233
*1362 FILLER_0_4_245
*1363 FILLER_0_4_251
*1364 FILLER_0_4_253
*1365 FILLER_0_4_265
*1366 FILLER_0_4_27
*1367 FILLER_0_4_277
*1368 FILLER_0_4_289
*1369 FILLER_0_4_29
*1370 FILLER_0_4_3
*1371 FILLER_0_4_301
*1372 FILLER_0_4_307
*1373 FILLER_0_4_309
*1374 FILLER_0_4_321
*1375 FILLER_0_4_333
*1376 FILLER_0_4_345
*1377 FILLER_0_4_41
*1378 FILLER_0_4_53
*1379 FILLER_0_4_65
*1380 FILLER_0_4_77
*1381 FILLER_0_4_83
*1382 FILLER_0_4_85
*1383 FILLER_0_4_97
*1384 FILLER_0_5_105
*1385 FILLER_0_5_111
*1386 FILLER_0_5_113
*1387 FILLER_0_5_125
*1388 FILLER_0_5_137
*1389 FILLER_0_5_149
*1390 FILLER_0_5_15
*1391 FILLER_0_5_161
*1392 FILLER_0_5_167
*1393 FILLER_0_5_169
*1394 FILLER_0_5_181
*1395 FILLER_0_5_193
*1396 FILLER_0_5_205
*1397 FILLER_0_5_217
*1398 FILLER_0_5_223
*1399 FILLER_0_5_225
*1400 FILLER_0_5_237
*1401 FILLER_0_5_249
*1402 FILLER_0_5_261
*1403 FILLER_0_5_27
*1404 FILLER_0_5_273
*1405 FILLER_0_5_279
*1406 FILLER_0_5_281
*1407 FILLER_0_5_293
*1408 FILLER_0_5_3
*1409 FILLER_0_5_305
*1410 FILLER_0_5_317
*1411 FILLER_0_5_329
*1412 FILLER_0_5_335
*1413 FILLER_0_5_337
*1414 FILLER_0_5_349
*1415 FILLER_0_5_39
*1416 FILLER_0_5_51
*1417 FILLER_0_5_55
*1418 FILLER_0_5_57
*1419 FILLER_0_5_69
*1420 FILLER_0_5_81
*1421 FILLER_0_5_93
*1422 FILLER_0_6_109
*1423 FILLER_0_6_121
*1424 FILLER_0_6_133
*1425 FILLER_0_6_139
*1426 FILLER_0_6_141
*1427 FILLER_0_6_15
*1428 FILLER_0_6_153
*1429 FILLER_0_6_165
*1430 FILLER_0_6_177
*1431 FILLER_0_6_189
*1432 FILLER_0_6_195
*1433 FILLER_0_6_197
*1434 FILLER_0_6_209
*1435 FILLER_0_6_221
*1436 FILLER_0_6_233
*1437 FILLER_0_6_245
*1438 FILLER_0_6_251
*1439 FILLER_0_6_253
*1440 FILLER_0_6_265
*1441 FILLER_0_6_27
*1442 FILLER_0_6_277
*1443 FILLER_0_6_289
*1444 FILLER_0_6_29
*1445 FILLER_0_6_3
*1446 FILLER_0_6_301
*1447 FILLER_0_6_307
*1448 FILLER_0_6_309
*1449 FILLER_0_6_321
*1450 FILLER_0_6_333
*1451 FILLER_0_6_345
*1452 FILLER_0_6_41
*1453 FILLER_0_6_53
*1454 FILLER_0_6_65
*1455 FILLER_0_6_77
*1456 FILLER_0_6_83
*1457 FILLER_0_6_85
*1458 FILLER_0_6_97
*1459 FILLER_0_7_105
*1460 FILLER_0_7_111
*1461 FILLER_0_7_113
*1462 FILLER_0_7_125
*1463 FILLER_0_7_137
*1464 FILLER_0_7_149
*1465 FILLER_0_7_15
*1466 FILLER_0_7_161
*1467 FILLER_0_7_167
*1468 FILLER_0_7_169
*1469 FILLER_0_7_181
*1470 FILLER_0_7_193
*1471 FILLER_0_7_205
*1472 FILLER_0_7_217