*SPEF "ieee 1481-1999"
*DESIGN "tt_um_BounceFSM_RSX92"
*DATE "11:11:11 Fri 11 11, 1111"
*VENDOR "OpenRCX"
*PROGRAM "Parallel Extraction"
*VERSION "1.0"
*DESIGN_FLOW "NAME_SCOPE LOCAL" "PIN_CAP NONE"
*DIVIDER /
*DELIMITER :
*BUS_DELIMITER []
*T_UNIT 1 NS
*C_UNIT 1 PF
*R_UNIT 1 OHM
*L_UNIT 1 HENRY

*NAME_MAP
*3 clk
*4 ena
*5 rst_n
*6 ui_in[0]
*7 ui_in[1]
*8 ui_in[2]
*9 ui_in[3]
*10 ui_in[4]
*11 ui_in[5]
*12 ui_in[6]
*13 ui_in[7]
*14 uio_in[0]
*15 uio_in[1]
*16 uio_in[2]
*17 uio_in[3]
*18 uio_in[4]
*19 uio_in[5]
*20 uio_in[6]
*21 uio_in[7]
*22 net8
*23 net9
*24 net10
*25 net11
*26 net12
*27 net13
*28 net14
*29 net15
*30 net16
*31 net17
*32 net18
*33 net19
*34 net20
*35 net21
*36 net22
*37 net23
*38 uo_out[0]
*39 uo_out[1]
*40 uo_out[2]
*41 uo_out[3]
*42 uo_out[4]
*43 uo_out[5]
*44 uo_out[6]
*45 uo_out[7]
*46 M0\.Div_2Hz\.o_clk
*47 M0\.Div_2Hz\.r_count_Q\[0\]
*48 M0\.Div_2Hz\.r_count_Q\[10\]
*49 M0\.Div_2Hz\.r_count_Q\[11\]
*50 M0\.Div_2Hz\.r_count_Q\[12\]
*51 M0\.Div_2Hz\.r_count_Q\[13\]
*52 M0\.Div_2Hz\.r_count_Q\[14\]
*53 M0\.Div_2Hz\.r_count_Q\[15\]
*54 M0\.Div_2Hz\.r_count_Q\[16\]
*55 M0\.Div_2Hz\.r_count_Q\[17\]
*56 M0\.Div_2Hz\.r_count_Q\[18\]
*57 M0\.Div_2Hz\.r_count_Q\[19\]
*58 M0\.Div_2Hz\.r_count_Q\[1\]
*59 M0\.Div_2Hz\.r_count_Q\[20\]
*60 M0\.Div_2Hz\.r_count_Q\[21\]
*61 M0\.Div_2Hz\.r_count_Q\[22\]
*62 M0\.Div_2Hz\.r_count_Q\[23\]
*63 M0\.Div_2Hz\.r_count_Q\[24\]
*64 M0\.Div_2Hz\.r_count_Q\[25\]
*65 M0\.Div_2Hz\.r_count_Q\[2\]
*66 M0\.Div_2Hz\.r_count_Q\[3\]
*67 M0\.Div_2Hz\.r_count_Q\[4\]
*68 M0\.Div_2Hz\.r_count_Q\[5\]
*69 M0\.Div_2Hz\.r_count_Q\[6\]
*70 M0\.Div_2Hz\.r_count_Q\[7\]
*71 M0\.Div_2Hz\.r_count_Q\[8\]
*72 M0\.Div_2Hz\.r_count_Q\[9\]
*73 M0\.m_FMD_password\.r_Current_State\[0\]
*74 M0\.m_FMD_password\.r_Current_State\[1\]
*75 M0\.m_FMD_password\.r_Current_State\[2\]
*76 M0\.m_FMD_password\.r_Current_State\[3\]
*77 M0\.m_FMD_password\.r_Current_State\[4\]
*78 M0\.m_FMD_password\.r_Current_State\[5\]
*79 M0\.m_FMD_password\.r_Current_State\[6\]
*80 M0\.m_FMD_password\.r_Current_State\[7\]
*81 _000_
*82 _001_
*83 _002_
*84 _003_
*85 _004_
*86 _005_
*87 _006_
*88 _007_
*89 _008_
*90 _009_
*91 _010_
*92 _011_
*93 _012_
*94 _013_
*95 _014_
*96 _015_
*97 _016_
*98 _017_
*99 _018_
*100 _019_
*101 _020_
*102 _021_
*103 _022_
*104 _023_
*105 _024_
*106 _025_
*107 _026_
*108 _027_
*109 _028_
*110 _029_
*111 _030_
*112 _031_
*113 _032_
*114 _033_
*115 _034_
*116 _035_
*117 _036_
*118 _037_
*119 _038_
*120 _039_
*121 _040_
*122 _041_
*123 _042_
*124 _043_
*125 _044_
*126 _045_
*127 _046_
*128 _047_
*129 _048_
*130 _049_
*131 _050_
*132 _051_
*133 _052_
*134 _053_
*135 _054_
*136 _055_
*137 _056_
*138 _057_
*139 _058_
*140 _059_
*141 _060_
*142 _061_
*143 _062_
*144 _063_
*145 _064_
*146 _065_
*147 _066_
*148 _067_
*149 _068_
*150 _069_
*151 _070_
*152 _071_
*153 _072_
*154 _073_
*155 _074_
*156 _075_
*157 _076_
*158 _077_
*159 _078_
*160 _079_
*161 _080_
*162 _081_
*163 _082_
*164 _083_
*165 _084_
*166 _085_
*167 _086_
*168 _087_
*169 _088_
*170 _089_
*171 _090_
*172 _091_
*173 _092_
*174 _093_
*175 _094_
*176 _095_
*177 _096_
*178 _097_
*179 _098_
*180 _099_
*181 _100_
*182 _101_
*183 _102_
*184 _103_
*185 _104_
*186 _105_
*187 _106_
*188 _107_
*189 _108_
*190 _109_
*191 _110_
*192 _111_
*193 _112_
*194 _113_
*195 _114_
*196 _115_
*197 _116_
*198 _117_
*199 _118_
*200 _119_
*201 _120_
*202 _121_
*203 _122_
*204 _123_
*205 _124_
*206 _125_
*207 _126_
*208 _127_
*209 _128_
*210 _129_
*211 _130_
*212 _131_
*213 _132_
*214 _133_
*215 _134_
*216 _135_
*217 _136_
*218 _137_
*219 _138_
*220 _139_
*221 _140_
*222 _141_
*223 _142_
*224 _143_
*225 _144_
*226 _145_
*227 _146_
*228 _147_
*229 _148_
*230 _149_
*231 _150_
*232 _151_
*233 _152_
*234 _153_
*235 _154_
*236 _155_
*237 _156_
*238 _157_
*239 _158_
*240 _159_
*241 _160_
*242 _161_
*243 _162_
*244 _163_
*245 _164_
*246 _165_
*247 _166_
*248 _167_
*249 _168_
*250 _169_
*251 _170_
*252 _171_
*253 _172_
*254 _173_
*255 _174_
*256 _175_
*257 _176_
*258 _177_
*259 _178_
*260 _179_
*261 _180_
*262 _181_
*263 clknet_0_clk
*264 clknet_2_0__leaf_clk
*265 clknet_2_1__leaf_clk
*266 clknet_2_2__leaf_clk
*267 clknet_2_3__leaf_clk
*268 net1
*269 net2
*270 net24
*271 net25
*272 net26
*273 net27
*274 net28
*275 net29
*276 net3
*277 net30
*278 net31
*279 net32
*280 net33
*281 net34
*282 net35
*283 net36
*284 net37
*285 net38
*286 net39
*287 net4
*288 net40
*289 net41
*290 net42
*291 net43
*292 net44
*293 net45
*294 net46
*295 net47
*296 net48
*297 net49
*298 net5
*299 net50
*300 net51
*301 net52
*302 net6
*303 net7
*304 FILLER_0_0_109
*305 FILLER_0_0_113
*306 FILLER_0_0_125
*307 FILLER_0_0_137
*308 FILLER_0_0_141
*309 FILLER_0_0_15
*310 FILLER_0_0_153
*311 FILLER_0_0_165
*312 FILLER_0_0_169
*313 FILLER_0_0_181
*314 FILLER_0_0_193
*315 FILLER_0_0_197
*316 FILLER_0_0_209
*317 FILLER_0_0_221
*318 FILLER_0_0_225
*319 FILLER_0_0_237
*320 FILLER_0_0_249
*321 FILLER_0_0_253
*322 FILLER_0_0_265
*323 FILLER_0_0_27
*324 FILLER_0_0_277
*325 FILLER_0_0_281
*326 FILLER_0_0_29
*327 FILLER_0_0_293
*328 FILLER_0_0_3
*329 FILLER_0_0_305
*330 FILLER_0_0_309
*331 FILLER_0_0_321
*332 FILLER_0_0_333
*333 FILLER_0_0_337
*334 FILLER_0_0_349
*335 FILLER_0_0_41
*336 FILLER_0_0_53
*337 FILLER_0_0_57
*338 FILLER_0_0_69
*339 FILLER_0_0_81
*340 FILLER_0_0_85
*341 FILLER_0_0_97
*342 FILLER_0_10_109
*343 FILLER_0_10_121
*344 FILLER_0_10_133
*345 FILLER_0_10_139
*346 FILLER_0_10_141
*347 FILLER_0_10_15
*348 FILLER_0_10_153
*349 FILLER_0_10_165
*350 FILLER_0_10_177
*351 FILLER_0_10_189
*352 FILLER_0_10_195
*353 FILLER_0_10_197
*354 FILLER_0_10_209
*355 FILLER_0_10_221
*356 FILLER_0_10_233
*357 FILLER_0_10_245
*358 FILLER_0_10_251
*359 FILLER_0_10_253
*360 FILLER_0_10_265
*361 FILLER_0_10_27
*362 FILLER_0_10_277
*363 FILLER_0_10_289
*364 FILLER_0_10_29
*365 FILLER_0_10_3
*366 FILLER_0_10_301
*367 FILLER_0_10_307
*368 FILLER_0_10_309
*369 FILLER_0_10_321
*370 FILLER_0_10_333
*371 FILLER_0_10_345
*372 FILLER_0_10_41
*373 FILLER_0_10_53
*374 FILLER_0_10_65
*375 FILLER_0_10_77
*376 FILLER_0_10_83
*377 FILLER_0_10_85
*378 FILLER_0_10_97
*379 FILLER_0_11_105
*380 FILLER_0_11_111
*381 FILLER_0_11_113
*382 FILLER_0_11_125
*383 FILLER_0_11_137
*384 FILLER_0_11_149
*385 FILLER_0_11_15
*386 FILLER_0_11_161
*387 FILLER_0_11_167
*388 FILLER_0_11_169
*389 FILLER_0_11_181
*390 FILLER_0_11_193
*391 FILLER_0_11_205
*392 FILLER_0_11_217
*393 FILLER_0_11_223
*394 FILLER_0_11_225
*395 FILLER_0_11_237
*396 FILLER_0_11_249
*397 FILLER_0_11_261
*398 FILLER_0_11_27
*399 FILLER_0_11_273
*400 FILLER_0_11_279
*401 FILLER_0_11_281
*402 FILLER_0_11_293
*403 FILLER_0_11_3
*404 FILLER_0_11_305
*405 FILLER_0_11_317
*406 FILLER_0_11_329
*407 FILLER_0_11_335
*408 FILLER_0_11_337
*409 FILLER_0_11_349
*410 FILLER_0_11_39
*411 FILLER_0_11_51
*412 FILLER_0_11_55
*413 FILLER_0_11_57
*414 FILLER_0_11_69
*415 FILLER_0_11_81
*416 FILLER_0_11_93
*417 FILLER_0_12_109
*418 FILLER_0_12_121
*419 FILLER_0_12_133
*420 FILLER_0_12_139
*421 FILLER_0_12_141
*422 FILLER_0_12_15
*423 FILLER_0_12_153
*424 FILLER_0_12_165
*425 FILLER_0_12_177
*426 FILLER_0_12_189
*427 FILLER_0_12_195
*428 FILLER_0_12_197
*429 FILLER_0_12_209
*430 FILLER_0_12_221
*431 FILLER_0_12_233
*432 FILLER_0_12_245
*433 FILLER_0_12_251
*434 FILLER_0_12_253
*435 FILLER_0_12_265
*436 FILLER_0_12_27
*437 FILLER_0_12_277
*438 FILLER_0_12_289
*439 FILLER_0_12_29
*440 FILLER_0_12_3
*441 FILLER_0_12_301
*442 FILLER_0_12_307
*443 FILLER_0_12_309
*444 FILLER_0_12_321
*445 FILLER_0_12_333
*446 FILLER_0_12_345
*447 FILLER_0_12_41
*448 FILLER_0_12_53
*449 FILLER_0_12_65
*450 FILLER_0_12_77
*451 FILLER_0_12_83
*452 FILLER_0_12_85
*453 FILLER_0_12_97
*454 FILLER_0_13_105
*455 FILLER_0_13_111
*456 FILLER_0_13_113
*457 FILLER_0_13_125
*458 FILLER_0_13_137
*459 FILLER_0_13_149
*460 FILLER_0_13_15
*461 FILLER_0_13_161
*462 FILLER_0_13_167
*463 FILLER_0_13_169
*464 FILLER_0_13_181
*465 FILLER_0_13_193
*466 FILLER_0_13_205
*467 FILLER_0_13_217
*468 FILLER_0_13_223
*469 FILLER_0_13_225
*470 FILLER_0_13_237
*471 FILLER_0_13_249
*472 FILLER_0_13_261
*473 FILLER_0_13_27
*474 FILLER_0_13_273
*475 FILLER_0_13_279
*476 FILLER_0_13_281
*477 FILLER_0_13_293
*478 FILLER_0_13_3
*479 FILLER_0_13_305
*480 FILLER_0_13_317
*481 FILLER_0_13_329
*482 FILLER_0_13_335
*483 FILLER_0_13_337
*484 FILLER_0_13_349
*485 FILLER_0_13_39
*486 FILLER_0_13_51
*487 FILLER_0_13_55
*488 FILLER_0_13_57
*489 FILLER_0_13_69
*490 FILLER_0_13_81
*491 FILLER_0_13_93
*492 FILLER_0_14_109
*493 FILLER_0_14_121
*494 FILLER_0_14_133
*495 FILLER_0_14_139
*496 FILLER_0_14_141
*497 FILLER_0_14_15
*498 FILLER_0_14_153
*499 FILLER_0_14_165
*500 FILLER_0_14_177
*501 FILLER_0_14_189
*502 FILLER_0_14_195
*503 FILLER_0_14_197
*504 FILLER_0_14_209
*505 FILLER_0_14_221
*506 FILLER_0_14_233
*507 FILLER_0_14_245
*508 FILLER_0_14_251
*509 FILLER_0_14_253
*510 FILLER_0_14_265
*511 FILLER_0_14_27
*512 FILLER_0_14_277
*513 FILLER_0_14_289
*514 FILLER_0_14_29
*515 FILLER_0_14_3
*516 FILLER_0_14_301
*517 FILLER_0_14_307
*518 FILLER_0_14_309
*519 FILLER_0_14_321
*520 FILLER_0_14_333
*521 FILLER_0_14_345
*522 FILLER_0_14_41
*523 FILLER_0_14_53
*524 FILLER_0_14_65
*525 FILLER_0_14_77
*526 FILLER_0_14_83
*527 FILLER_0_14_85
*528 FILLER_0_14_97
*529 FILLER_0_15_105
*530 FILLER_0_15_111
*531 FILLER_0_15_113
*532 FILLER_0_15_125
*533 FILLER_0_15_137
*534 FILLER_0_15_149
*535 FILLER_0_15_15
*536 FILLER_0_15_161
*537 FILLER_0_15_167
*538 FILLER_0_15_169
*539 FILLER_0_15_181
*540 FILLER_0_15_193
*541 FILLER_0_15_205
*542 FILLER_0_15_217
*543 FILLER_0_15_223
*544 FILLER_0_15_225
*545 FILLER_0_15_237
*546 FILLER_0_15_249
*547 FILLER_0_15_261
*548 FILLER_0_15_27
*549 FILLER_0_15_273
*550 FILLER_0_15_279
*551 FILLER_0_15_281
*552 FILLER_0_15_293
*553 FILLER_0_15_3
*554 FILLER_0_15_305
*555 FILLER_0_15_317
*556 FILLER_0_15_329
*557 FILLER_0_15_335
*558 FILLER_0_15_337
*559 FILLER_0_15_349
*560 FILLER_0_15_39
*561 FILLER_0_15_51
*562 FILLER_0_15_55
*563 FILLER_0_15_57
*564 FILLER_0_15_69
*565 FILLER_0_15_81
*566 FILLER_0_15_93
*567 FILLER_0_16_109
*568 FILLER_0_16_121
*569 FILLER_0_16_133
*570 FILLER_0_16_139
*571 FILLER_0_16_141
*572 FILLER_0_16_15
*573 FILLER_0_16_153
*574 FILLER_0_16_165
*575 FILLER_0_16_177
*576 FILLER_0_16_189
*577 FILLER_0_16_195
*578 FILLER_0_16_197
*579 FILLER_0_16_209
*580 FILLER_0_16_221
*581 FILLER_0_16_233
*582 FILLER_0_16_245
*583 FILLER_0_16_251
*584 FILLER_0_16_253
*585 FILLER_0_16_265
*586 FILLER_0_16_27
*587 FILLER_0_16_277
*588 FILLER_0_16_289
*589 FILLER_0_16_29
*590 FILLER_0_16_3
*591 FILLER_0_16_301
*592 FILLER_0_16_307
*593 FILLER_0_16_309
*594 FILLER_0_16_321
*595 FILLER_0_16_333
*596 FILLER_0_16_345
*597 FILLER_0_16_41
*598 FILLER_0_16_53
*599 FILLER_0_16_65
*600 FILLER_0_16_77
*601 FILLER_0_16_83
*602 FILLER_0_16_85
*603 FILLER_0_16_97
*604 FILLER_0_17_105
*605 FILLER_0_17_111
*606 FILLER_0_17_113
*607 FILLER_0_17_125
*608 FILLER_0_17_137
*609 FILLER_0_17_149
*610 FILLER_0_17_15
*611 FILLER_0_17_161
*612 FILLER_0_17_167
*613 FILLER_0_17_169
*614 FILLER_0_17_181
*615 FILLER_0_17_193
*616 FILLER_0_17_205
*617 FILLER_0_17_217
*618 FILLER_0_17_223
*619 FILLER_0_17_225
*620 FILLER_0_17_237
*621 FILLER_0_17_249
*622 FILLER_0_17_261
*623 FILLER_0_17_27
*624 FILLER_0_17_273
*625 FILLER_0_17_279
*626 FILLER_0_17_281
*627 FILLER_0_17_293
*628 FILLER_0_17_3
*629 FILLER_0_17_305
*630 FILLER_0_17_317
*631 FILLER_0_17_329
*632 FILLER_0_17_335
*633 FILLER_0_17_337
*634 FILLER_0_17_349
*635 FILLER_0_17_39
*636 FILLER_0_17_51
*637 FILLER_0_17_55
*638 FILLER_0_17_57
*639 FILLER_0_17_69
*640 FILLER_0_17_81
*641 FILLER_0_17_93
*642 FILLER_0_18_109
*643 FILLER_0_18_121
*644 FILLER_0_18_133
*645 FILLER_0_18_139
*646 FILLER_0_18_141
*647 FILLER_0_18_15
*648 FILLER_0_18_153
*649 FILLER_0_18_165
*650 FILLER_0_18_177
*651 FILLER_0_18_189
*652 FILLER_0_18_195
*653 FILLER_0_18_197
*654 FILLER_0_18_209
*655 FILLER_0_18_221
*656 FILLER_0_18_233
*657 FILLER_0_18_245
*658 FILLER_0_18_251
*659 FILLER_0_18_253
*660 FILLER_0_18_265
*661 FILLER_0_18_27
*662 FILLER_0_18_277
*663 FILLER_0_18_289
*664 FILLER_0_18_29
*665 FILLER_0_18_3
*666 FILLER_0_18_301
*667 FILLER_0_18_307
*668 FILLER_0_18_309
*669 FILLER_0_18_321
*670 FILLER_0_18_333
*671 FILLER_0_18_345
*672 FILLER_0_18_41
*673 FILLER_0_18_53
*674 FILLER_0_18_65
*675 FILLER_0_18_77
*676 FILLER_0_18_83
*677 FILLER_0_18_85
*678 FILLER_0_18_97
*679 FILLER_0_19_105
*680 FILLER_0_19_111
*681 FILLER_0_19_113
*682 FILLER_0_19_125
*683 FILLER_0_19_137
*684 FILLER_0_19_149
*685 FILLER_0_19_15
*686 FILLER_0_19_161
*687 FILLER_0_19_167
*688 FILLER_0_19_169
*689 FILLER_0_19_181
*690 FILLER_0_19_193
*691 FILLER_0_19_205
*692 FILLER_0_19_217
*693 FILLER_0_19_223
*694 FILLER_0_19_225
*695 FILLER_0_19_237
*696 FILLER_0_19_249
*697 FILLER_0_19_261
*698 FILLER_0_19_27
*699 FILLER_0_19_273
*700 FILLER_0_19_279
*701 FILLER_0_19_281
*702 FILLER_0_19_293
*703 FILLER_0_19_3
*704 FILLER_0_19_305
*705 FILLER_0_19_317
*706 FILLER_0_19_329
*707 FILLER_0_19_335
*708 FILLER_0_19_337
*709 FILLER_0_19_349
*710 FILLER_0_19_39
*711 FILLER_0_19_51
*712 FILLER_0_19_55
*713 FILLER_0_19_57
*714 FILLER_0_19_69
*715 FILLER_0_19_81
*716 FILLER_0_19_93
*717 FILLER_0_1_105
*718 FILLER_0_1_111
*719 FILLER_0_1_113
*720 FILLER_0_1_125
*721 FILLER_0_1_137
*722 FILLER_0_1_149
*723 FILLER_0_1_15
*724 FILLER_0_1_161
*725 FILLER_0_1_167
*726 FILLER_0_1_169
*727 FILLER_0_1_181
*728 FILLER_0_1_193
*729 FILLER_0_1_205
*730 FILLER_0_1_217
*731 FILLER_0_1_223
*732 FILLER_0_1_225
*733 FILLER_0_1_237
*734 FILLER_0_1_249
*735 FILLER_0_1_261
*736 FILLER_0_1_27
*737 FILLER_0_1_273
*738 FILLER_0_1_279
*739 FILLER_0_1_281
*740 FILLER_0_1_293
*741 FILLER_0_1_3
*742 FILLER_0_1_305
*743 FILLER_0_1_317
*744 FILLER_0_1_329
*745 FILLER_0_1_335
*746 FILLER_0_1_337
*747 FILLER_0_1_349
*748 FILLER_0_1_39
*749 FILLER_0_1_51
*750 FILLER_0_1_55
*751 FILLER_0_1_57
*752 FILLER_0_1_69
*753 FILLER_0_1_81
*754 FILLER_0_1_93
*755 FILLER_0_20_109
*756 FILLER_0_20_121
*757 FILLER_0_20_133
*758 FILLER_0_20_139
*759 FILLER_0_20_141
*760 FILLER_0_20_15
*761 FILLER_0_20_153
*762 FILLER_0_20_165
*763 FILLER_0_20_177
*764 FILLER_0_20_189
*765 FILLER_0_20_195
*766 FILLER_0_20_197
*767 FILLER_0_20_209
*768 FILLER_0_20_221
*769 FILLER_0_20_233
*770 FILLER_0_20_245
*771 FILLER_0_20_251
*772 FILLER_0_20_253
*773 FILLER_0_20_265
*774 FILLER_0_20_27
*775 FILLER_0_20_277
*776 FILLER_0_20_289
*777 FILLER_0_20_29
*778 FILLER_0_20_3
*779 FILLER_0_20_301
*780 FILLER_0_20_307
*781 FILLER_0_20_309
*782 FILLER_0_20_321
*783 FILLER_0_20_333
*784 FILLER_0_20_345
*785 FILLER_0_20_41
*786 FILLER_0_20_53
*787 FILLER_0_20_65
*788 FILLER_0_20_77
*789 FILLER_0_20_83
*790 FILLER_0_20_85
*791 FILLER_0_20_97
*792 FILLER_0_21_105
*793 FILLER_0_21_111
*794 FILLER_0_21_113
*795 FILLER_0_21_125
*796 FILLER_0_21_137
*797 FILLER_0_21_149
*798 FILLER_0_21_15
*799 FILLER_0_21_161
*800 FILLER_0_21_167
*801 FILLER_0_21_169
*802 FILLER_0_21_181
*803 FILLER_0_21_193
*804 FILLER_0_21_205
*805 FILLER_0_21_217
*806 FILLER_0_21_223
*807 FILLER_0_21_225
*808 FILLER_0_21_237
*809 FILLER_0_21_245
*810 FILLER_0_21_263
*811 FILLER_0_21_269
*812 FILLER_0_21_27
*813 FILLER_0_21_277
*814 FILLER_0_21_281
*815 FILLER_0_21_293
*816 FILLER_0_21_3
*817 FILLER_0_21_305
*818 FILLER_0_21_317
*819 FILLER_0_21_329
*820 FILLER_0_21_335
*821 FILLER_0_21_337
*822 FILLER_0_21_349
*823 FILLER_0_21_39
*824 FILLER_0_21_51
*825 FILLER_0_21_55
*826 FILLER_0_21_57
*827 FILLER_0_21_69
*828 FILLER_0_21_81
*829 FILLER_0_21_93
*830 FILLER_0_22_109
*831 FILLER_0_22_121
*832 FILLER_0_22_133
*833 FILLER_0_22_139
*834 FILLER_0_22_141
*835 FILLER_0_22_15
*836 FILLER_0_22_153
*837 FILLER_0_22_165
*838 FILLER_0_22_177
*839 FILLER_0_22_186
*840 FILLER_0_22_194
*841 FILLER_0_22_213
*842 FILLER_0_22_240
*843 FILLER_0_22_259
*844 FILLER_0_22_268
*845 FILLER_0_22_27
*846 FILLER_0_22_285
*847 FILLER_0_22_289
*848 FILLER_0_22_29
*849 FILLER_0_22_3
*850 FILLER_0_22_306
*851 FILLER_0_22_320
*852 FILLER_0_22_332
*853 FILLER_0_22_344
*854 FILLER_0_22_350
*855 FILLER_0_22_41
*856 FILLER_0_22_53
*857 FILLER_0_22_65
*858 FILLER_0_22_77
*859 FILLER_0_22_83
*860 FILLER_0_22_85
*861 FILLER_0_22_97
*862 FILLER_0_23_105
*863 FILLER_0_23_111
*864 FILLER_0_23_113
*865 FILLER_0_23_125
*866 FILLER_0_23_137
*867 FILLER_0_23_149
*868 FILLER_0_23_15
*869 FILLER_0_23_161
*870 FILLER_0_23_167
*871 FILLER_0_23_191
*872 FILLER_0_23_208
*873 FILLER_0_23_230
*874 FILLER_0_23_258
*875 FILLER_0_23_265
*876 FILLER_0_23_27
*877 FILLER_0_23_3
*878 FILLER_0_23_314
*879 FILLER_0_23_332
*880 FILLER_0_23_337
*881 FILLER_0_23_349
*882 FILLER_0_23_39
*883 FILLER_0_23_51
*884 FILLER_0_23_55
*885 FILLER_0_23_57
*886 FILLER_0_23_69
*887 FILLER_0_23_81
*888 FILLER_0_23_93
*889 FILLER_0_24_109
*890 FILLER_0_24_121
*891 FILLER_0_24_133
*892 FILLER_0_24_139
*893 FILLER_0_24_141
*894 FILLER_0_24_15
*895 FILLER_0_24_153
*896 FILLER_0_24_165
*897 FILLER_0_24_177
*898 FILLER_0_24_194
*899 FILLER_0_24_215
*900 FILLER_0_24_227
*901 FILLER_0_24_249
*902 FILLER_0_24_261
*903 FILLER_0_24_265
*904 FILLER_0_24_27
*905 FILLER_0_24_272
*906 FILLER_0_24_285
*907 FILLER_0_24_289
*908 FILLER_0_24_29
*909 FILLER_0_24_296
*910 FILLER_0_24_3
*911 FILLER_0_24_300
*912 FILLER_0_24_309
*913 FILLER_0_24_315
*914 FILLER_0_24_324
*915 FILLER_0_24_348
*916 FILLER_0_24_41
*917 FILLER_0_24_53
*918 FILLER_0_24_65
*919 FILLER_0_24_77
*920 FILLER_0_24_83
*921 FILLER_0_24_85
*922 FILLER_0_24_97
*923 FILLER_0_25_105
*924 FILLER_0_25_111
*925 FILLER_0_25_113
*926 FILLER_0_25_125
*927 FILLER_0_25_137
*928 FILLER_0_25_149
*929 FILLER_0_25_15
*930 FILLER_0_25_161
*931 FILLER_0_25_167
*932 FILLER_0_25_194
*933 FILLER_0_25_204
*934 FILLER_0_25_212
*935 FILLER_0_25_225
*936 FILLER_0_25_237
*937 FILLER_0_25_249
*938 FILLER_0_25_27
*939 FILLER_0_25_273
*940 FILLER_0_25_3
*941 FILLER_0_25_309
*942 FILLER_0_25_324
*943 FILLER_0_25_345
*944 FILLER_0_25_39
*945 FILLER_0_25_51
*946 FILLER_0_25_55
*947 FILLER_0_25_57
*948 FILLER_0_25_69
*949 FILLER_0_25_81
*950 FILLER_0_25_93
*951 FILLER_0_26_109
*952 FILLER_0_26_121
*953 FILLER_0_26_133
*954 FILLER_0_26_139
*955 FILLER_0_26_141
*956 FILLER_0_26_15
*957 FILLER_0_26_153
*958 FILLER_0_26_165
*959 FILLER_0_26_177
*960 FILLER_0_26_190
*961 FILLER_0_26_250
*962 FILLER_0_26_269
*963 FILLER_0_26_27
*964 FILLER_0_26_277
*965 FILLER_0_26_288
*966 FILLER_0_26_29
*967 FILLER_0_26_3
*968 FILLER_0_26_300
*969 FILLER_0_26_317
*970 FILLER_0_26_327
*971 FILLER_0_26_331
*972 FILLER_0_26_348
*973 FILLER_0_26_41
*974 FILLER_0_26_53
*975 FILLER_0_26_65
*976 FILLER_0_26_77
*977 FILLER_0_26_83
*978 FILLER_0_26_85
*979 FILLER_0_26_97
*980 FILLER_0_27_105
*981 FILLER_0_27_111
*982 FILLER_0_27_113
*983 FILLER_0_27_125
*984 FILLER_0_27_137
*985 FILLER_0_27_149
*986 FILLER_0_27_15
*987 FILLER_0_27_161
*988 FILLER_0_27_167
*989 FILLER_0_27_185
*990 FILLER_0_27_212
*991 FILLER_0_27_225
*992 FILLER_0_27_237
*993 FILLER_0_27_255
*994 FILLER_0_27_27
*995 FILLER_0_27_273
*996 FILLER_0_27_279
*997 FILLER_0_27_281
*998 FILLER_0_27_3
*999 FILLER_0_27_314
*1000 FILLER_0_27_326
*1001 FILLER_0_27_334
*1002 FILLER_0_27_345
*1003 FILLER_0_27_39
*1004 FILLER_0_27_51
*1005 FILLER_0_27_55
*1006 FILLER_0_27_57
*1007 FILLER_0_27_69
*1008 FILLER_0_27_81
*1009 FILLER_0_27_93
*1010 FILLER_0_28_109
*1011 FILLER_0_28_121
*1012 FILLER_0_28_133
*1013 FILLER_0_28_139
*1014 FILLER_0_28_141
*1015 FILLER_0_28_15
*1016 FILLER_0_28_153
*1017 FILLER_0_28_165
*1018 FILLER_0_28_177
*1019 FILLER_0_28_195
*1020 FILLER_0_28_217
*1021 FILLER_0_28_250
*1022 FILLER_0_28_260
*1023 FILLER_0_28_27
*1024 FILLER_0_28_275
*1025 FILLER_0_28_29
*1026 FILLER_0_28_297
*1027 FILLER_0_28_3
*1028 FILLER_0_28_305
*1029 FILLER_0_28_309
*1030 FILLER_0_28_314
*1031 FILLER_0_28_330
*1032 FILLER_0_28_347
*1033 FILLER_0_28_41
*1034 FILLER_0_28_53
*1035 FILLER_0_28_65
*1036 FILLER_0_28_77
*1037 FILLER_0_28_83
*1038 FILLER_0_28_85
*1039 FILLER_0_28_97
*1040 FILLER_0_29_105
*1041 FILLER_0_29_111
*1042 FILLER_0_29_113
*1043 FILLER_0_29_125
*1044 FILLER_0_29_137
*1045 FILLER_0_29_149
*1046 FILLER_0_29_15
*1047 FILLER_0_29_161
*1048 FILLER_0_29_167
*1049 FILLER_0_29_169
*1050 FILLER_0_29_189
*1051 FILLER_0_29_200
*1052 FILLER_0_29_222
*1053 FILLER_0_29_225
*1054 FILLER_0_29_237
*1055 FILLER_0_29_27
*1056 FILLER_0_29_275
*1057 FILLER_0_29_279
*1058 FILLER_0_29_3
*1059 FILLER_0_29_304
*1060 FILLER_0_29_321
*1061 FILLER_0_29_325
*1062 FILLER_0_29_329
*1063 FILLER_0_29_335
*1064 FILLER_0_29_337
*1065 FILLER_0_29_346
*1066 FILLER_0_29_350
*1067 FILLER_0_29_39
*1068 FILLER_0_29_51
*1069 FILLER_0_29_55
*1070 FILLER_0_29_57
*1071 FILLER_0_29_69
*1072 FILLER_0_29_81
*1073 FILLER_0_29_93
*1074 FILLER_0_2_109
*1075 FILLER_0_2_121
*1076 FILLER_0_2_133
*1077 FILLER_0_2_139
*1078 FILLER_0_2_141
*1079 FILLER_0_2_15
*1080 FILLER_0_2_153
*1081 FILLER_0_2_165
*1082 FILLER_0_2_177
*1083 FILLER_0_2_189
*1084 FILLER_0_2_195
*1085 FILLER_0_2_197
*1086 FILLER_0_2_209
*1087 FILLER_0_2_221
*1088 FILLER_0_2_233
*1089 FILLER_0_2_245
*1090 FILLER_0_2_251
*1091 FILLER_0_2_253
*1092 FILLER_0_2_265
*1093 FILLER_0_2_27
*1094 FILLER_0_2_277
*1095 FILLER_0_2_289
*1096 FILLER_0_2_29
*1097 FILLER_0_2_3
*1098 FILLER_0_2_301
*1099 FILLER_0_2_307
*1100 FILLER_0_2_309
*1101 FILLER_0_2_321
*1102 FILLER_0_2_333
*1103 FILLER_0_2_345
*1104 FILLER_0_2_41
*1105 FILLER_0_2_53
*1106 FILLER_0_2_65
*1107 FILLER_0_2_77
*1108 FILLER_0_2_83
*1109 FILLER_0_2_85
*1110 FILLER_0_2_97
*1111 FILLER_0_30_109
*1112 FILLER_0_30_121
*1113 FILLER_0_30_133
*1114 FILLER_0_30_139
*1115 FILLER_0_30_141
*1116 FILLER_0_30_15
*1117 FILLER_0_30_153
*1118 FILLER_0_30_165
*1119 FILLER_0_30_177
*1120 FILLER_0_30_193
*1121 FILLER_0_30_197
*1122 FILLER_0_30_214
*1123 FILLER_0_30_223
*1124 FILLER_0_30_233
*1125 FILLER_0_30_244
*1126 FILLER_0_30_258
*1127 FILLER_0_30_265
*1128 FILLER_0_30_27
*1129 FILLER_0_30_287
*1130 FILLER_0_30_29
*1131 FILLER_0_30_291
*1132 FILLER_0_30_298
*1133 FILLER_0_30_3
*1134 FILLER_0_30_331
*1135 FILLER_0_30_348
*1136 FILLER_0_30_41
*1137 FILLER_0_30_53
*1138 FILLER_0_30_65
*1139 FILLER_0_30_77
*1140 FILLER_0_30_83
*1141 FILLER_0_30_85
*1142 FILLER_0_30_97
*1143 FILLER_0_31_105
*1144 FILLER_0_31_111
*1145 FILLER_0_31_113
*1146 FILLER_0_31_125
*1147 FILLER_0_31_137
*1148 FILLER_0_31_149
*1149 FILLER_0_31_15
*1150 FILLER_0_31_161
*1151 FILLER_0_31_167
*1152 FILLER_0_31_169
*1153 FILLER_0_31_181
*1154 FILLER_0_31_193
*1155 FILLER_0_31_208
*1156 FILLER_0_31_220
*1157 FILLER_0_31_263
*1158 FILLER_0_31_27
*1159 FILLER_0_31_271
*1160 FILLER_0_31_287
*1161 FILLER_0_31_299
*1162 FILLER_0_31_3
*1163 FILLER_0_31_307
*1164 FILLER_0_31_312
*1165 FILLER_0_31_324
*1166 FILLER_0_31_337
*1167 FILLER_0_31_346
*1168 FILLER_0_31_350
*1169 FILLER_0_31_39
*1170 FILLER_0_31_51
*1171 FILLER_0_31_55
*1172 FILLER_0_31_57
*1173 FILLER_0_31_69
*1174 FILLER_0_31_81
*1175 FILLER_0_31_93
*1176 FILLER_0_32_109
*1177 FILLER_0_32_121
*1178 FILLER_0_32_133
*1179 FILLER_0_32_139
*1180 FILLER_0_32_141
*1181 FILLER_0_32_15
*1182 FILLER_0_32_153
*1183 FILLER_0_32_165
*1184 FILLER_0_32_177
*1185 FILLER_0_32_185
*1186 FILLER_0_32_190
*1187 FILLER_0_32_217
*1188 FILLER_0_32_225
*1189 FILLER_0_32_236
*1190 FILLER_0_32_248
*1191 FILLER_0_32_269
*1192 FILLER_0_32_27
*1193 FILLER_0_32_277
*1194 FILLER_0_32_281
*1195 FILLER_0_32_289
*1196 FILLER_0_32_29
*1197 FILLER_0_32_3
*1198 FILLER_0_32_317
*1199 FILLER_0_32_326
*1200 FILLER_0_32_348
*1201 FILLER_0_32_41
*1202 FILLER_0_32_53
*1203 FILLER_0_32_65
*1204 FILLER_0_32_77
*1205 FILLER_0_32_83
*1206 FILLER_0_32_85
*1207 FILLER_0_32_97
*1208 FILLER_0_33_105
*1209 FILLER_0_33_111
*1210 FILLER_0_33_113
*1211 FILLER_0_33_125
*1212 FILLER_0_33_137
*1213 FILLER_0_33_149
*1214 FILLER_0_33_15
*1215 FILLER_0_33_161
*1216 FILLER_0_33_167
*1217 FILLER_0_33_169
*1218 FILLER_0_33_181
*1219 FILLER_0_33_201
*1220 FILLER_0_33_207
*1221 FILLER_0_33_215
*1222 FILLER_0_33_223
*1223 FILLER_0_33_225
*1224 FILLER_0_33_247
*1225 FILLER_0_33_253
*1226 FILLER_0_33_27
*1227 FILLER_0_33_270
*1228 FILLER_0_33_278
*1229 FILLER_0_33_281
*1230 FILLER_0_33_293
*1231 FILLER_0_33_3
*1232 FILLER_0_33_305
*1233 FILLER_0_33_319
*1234 FILLER_0_33_329
*1235 FILLER_0_33_335
*1236 FILLER_0_33_337
*1237 FILLER_0_33_349
*1238 FILLER_0_33_39
*1239 FILLER_0_33_51
*1240 FILLER_0_33_55
*1241 FILLER_0_33_57
*1242 FILLER_0_33_69
*1243 FILLER_0_33_81
*1244 FILLER_0_33_93
*1245 FILLER_0_34_109
*1246 FILLER_0_34_121
*1247 FILLER_0_34_133
*1248 FILLER_0_34_139
*1249 FILLER_0_34_141
*1250 FILLER_0_34_15
*1251 FILLER_0_34_161
*1252 FILLER_0_34_179
*1253 FILLER_0_34_188
*1254 FILLER_0_34_197
*1255 FILLER_0_34_207
*1256 FILLER_0_34_225
*1257 FILLER_0_34_237
*1258 FILLER_0_34_243
*1259 FILLER_0_34_251
*1260 FILLER_0_34_264
*1261 FILLER_0_34_27
*1262 FILLER_0_34_29
*1263 FILLER_0_34_3
*1264 FILLER_0_34_303
*1265 FILLER_0_34_307
*1266 FILLER_0_34_325
*1267 FILLER_0_34_349
*1268 FILLER_0_34_41
*1269 FILLER_0_34_53
*1270 FILLER_0_34_65
*1271 FILLER_0_34_77
*1272 FILLER_0_34_83
*1273 FILLER_0_34_85
*1274 FILLER_0_34_97
*1275 FILLER_0_35_105
*1276 FILLER_0_35_111
*1277 FILLER_0_35_113
*1278 FILLER_0_35_125
*1279 FILLER_0_35_137
*1280 FILLER_0_35_145
*1281 FILLER_0_35_15
*1282 FILLER_0_35_151
*1283 FILLER_0_35_163
*1284 FILLER_0_35_169
*1285 FILLER_0_35_175
*1286 FILLER_0_35_187
*1287 FILLER_0_35_195
*1288 FILLER_0_35_201
*1289 FILLER_0_35_213
*1290 FILLER_0_35_221
*1291 FILLER_0_35_225
*1292 FILLER_0_35_243
*1293 FILLER_0_35_250
*1294 FILLER_0_35_254
*1295 FILLER_0_35_263
*1296 FILLER_0_35_27
*1297 FILLER_0_35_271
*1298 FILLER_0_35_281
*1299 FILLER_0_35_289
*1300 FILLER_0_35_298
*1301 FILLER_0_35_3
*1302 FILLER_0_35_306
*1303 FILLER_0_35_315
*1304 FILLER_0_35_39
*1305 FILLER_0_35_51
*1306 FILLER_0_35_55
*1307 FILLER_0_35_57
*1308 FILLER_0_35_69
*1309 FILLER_0_35_81
*1310 FILLER_0_35_93
*1311 FILLER_0_36_109
*1312 FILLER_0_36_121
*1313 FILLER_0_36_133
*1314 FILLER_0_36_139
*1315 FILLER_0_36_15
*1316 FILLER_0_36_172
*1317 FILLER_0_36_184
*1318 FILLER_0_36_205
*1319 FILLER_0_36_221
*1320 FILLER_0_36_249
*1321 FILLER_0_36_253
*1322 FILLER_0_36_27
*1323 FILLER_0_36_270
*1324 FILLER_0_36_278
*1325 FILLER_0_36_29
*1326 FILLER_0_36_298
*1327 FILLER_0_36_3
*1328 FILLER_0_36_302
*1329 FILLER_0_36_317
*1330 FILLER_0_36_350
*1331 FILLER_0_36_41
*1332 FILLER_0_36_53
*1333 FILLER_0_36_65
*1334 FILLER_0_36_77
*1335 FILLER_0_36_83
*1336 FILLER_0_36_85
*1337 FILLER_0_36_97
*1338 FILLER_0_37_105
*1339 FILLER_0_37_111
*1340 FILLER_0_37_113
*1341 FILLER_0_37_125
*1342 FILLER_0_37_131
*1343 FILLER_0_37_15
*1344 FILLER_0_37_157
*1345 FILLER_0_37_177
*1346 FILLER_0_37_189
*1347 FILLER_0_37_201
*1348 FILLER_0_37_213
*1349 FILLER_0_37_221
*1350 FILLER_0_37_242
*1351 FILLER_0_37_259
*1352 FILLER_0_37_269
*1353 FILLER_0_37_27
*1354 FILLER_0_37_284
*1355 FILLER_0_37_3
*1356 FILLER_0_37_307
*1357 FILLER_0_37_319
*1358 FILLER_0_37_337
*1359 FILLER_0_37_349
*1360 FILLER_0_37_39
*1361 FILLER_0_37_51
*1362 FILLER_0_37_55
*1363 FILLER_0_37_57
*1364 FILLER_0_37_69
*1365 FILLER_0_37_81
*1366 FILLER_0_37_93
*1367 FILLER_0_38_102
*1368 FILLER_0_38_106
*1369 FILLER_0_38_110
*1370 FILLER_0_38_113
*1371 FILLER_0_38_118
*1372 FILLER_0_38_122
*1373 FILLER_0_38_126
*1374 FILLER_0_38_130
*1375 FILLER_0_38_134
*1376 FILLER_0_38_14
*1377 FILLER_0_38_141
*1378 FILLER_0_38_150
*1379 FILLER_0_38_169
*1380 FILLER_0_38_175
*1381 FILLER_0_38_18
*1382 FILLER_0_38_193
*1383 FILLER_0_38_214
*1384 FILLER_0_38_22
*1385 FILLER_0_38_222
*1386 FILLER_0_38_249
*1387 FILLER_0_38_253
*1388 FILLER_0_38_265
*1389 FILLER_0_38_3
*1390 FILLER_0_38_301
*1391 FILLER_0_38_307
*1392 FILLER_0_38_309
*1393 FILLER_0_38_32
*1394 FILLER_0_38_335
*1395 FILLER_0_38_344
*1396 FILLER_0_38_350
*1397 FILLER_0_38_38
*1398 FILLER_0_38_42
*1399 FILLER_0_38_46
*1400 FILLER_0_38_50
*1401 FILLER_0_38_54
*1402 FILLER_0_38_57
*1403 FILLER_0_38_62
*1404 FILLER_0_38_66
*1405 FILLER_0_38_70
*1406 FILLER_0_38_74
*1407 FILLER_0_38_78
*1408 FILLER_0_38_88
*1409 FILLER_0_38_94
*1410 FILLER_0_38_98
*1411 FILLER_0_3_105
*1412 FILLER_0_3_111
*1413 FILLER_0_3_113
*1414 FILLER_0_3_125
*1415 FILLER_0_3_137
*1416 FILLER_0_3_149
*1417 FILLER_0_3_15
*1418 FILLER_0_3_161
*1419 FILLER_0_3_167
*1420 FILLER_0_3_169
*1421 FILLER_0_3_181
*1422 FILLER_0_3_193
*1423 FILLER_0_3_205
*1424 FILLER_0_3_217
*1425 FILLER_0_3_223
*1426 FILLER_0_3_225
*1427 FILLER_0_3_237
*1428 FILLER_0_3_249
*1429 FILLER_0_3_261
*1430 FILLER_0_3_27
*1431 FILLER_0_3_273
*1432 FILLER_0_3_279
*1433 FILLER_0_3_281
*1434 FILLER_0_3_293
*1435 FILLER_0_3_3
*1436 FILLER_0_3_305
*1437 FILLER_0_3_317
*1438 FILLER_0_3_329
*1439 FILLER_0_3_335
*1440 FILLER_0_3_337
*1441 FILLER_0_3_349
*1442 FILLER_0_3_39
*1443 FILLER_0_3_51
*1444 FILLER_0_3_55
*1445 FILLER_0_3_57
*1446 FILLER_0_3_69
*1447 FILLER_0_3_81
*1448 FILLER_0_3_93
*1449 FILLER_0_4_109
*1450 FILLER_0_4_121
*1451 FILLER_0_4_133
*1452 FILLER_0_4_139
*1453 FILLER_0_4_141
*1454 FILLER_0_4_15
*1455 FILLER_0_4_153
*1456 FILLER_0_4_165
*1457 FILLER_0_4_177
*1458 FILLER_0_4_189
*1459 FILLER_0_4_195
*1460 FILLER_0_4_197
*1461 FILLER_0_4_209
*1462 FILLER_0_4_221
*1463 FILLER_0_4_233
*1464 FILLER_0_4_245
*1465 FILLER_0_4_251
*1466 FILLER_0_4_253
*1467 FILLER_0_4_265
*1468 FILLER_0_4_27
*1469 FILLER_0_4_277
*1470 FILLER_0_4_289
*1471 FILLER_0_4_29
*1472 FILLER_0_4_3
*1473 FILLER_0_4_301
*1474 FILLER_0_4_307
*1475 FILLER_0_4_309
*1476 FILLER_0_4_321
*1477 FILLER_0_4_333
*1478 FILLER_0_4_345
*1479 FILLER_0_4_41
*1480 FILLER_0_4_53
*1481 FILLER_0_4_65
*1482 FILLER_0_4_77
*1483 FILLER_0_4_83
*1484 FILLER_0_4_85
*1485 FILLER_0_4_97
*1486 FILLER_0_5_105
*1487 FILLER_0_5_111
*1488 FILLER_0_5_113
*1489 FILLER_0_5_125
*1490 FILLER_0_5_137
*1491 FILLER_0_5_149
*1492 FILLER_0_5_15
*1493 FILLER_0_5_161
*1494 FILLER_0_5_167
*1495 FILLER_0_5_169
*1496 FILLER_0_5_181
*1497 FILLER_0_5_193
*1498 FILLER_0_5_205
*1499 FILLER_0_5_217
*1500 FILLER_0_5_223
*1501 FILLER_0_5_225
*1502 FILLER_0_5_237
*1503 FILLER_0_5_249
*1504 FILLER_0_5_261
*1505 FILLER_0_5_27
*1506 FILLER_0_5_273
*1507 FILLER_0_5_279
*1508 FILLER_0_5_281
*1509 FILLER_0_5_293
*1510 FILLER_0_5_3
*1511 FILLER_0_5_305
*1512 FILLER_0_5_317
*1513 FILLER_0_5_329
*1514 FILLER_0_5_335
*1515 FILLER_0_5_337
*1516 FILLER_0_5_349
*1517 FILLER_0_5_39
*1518 FILLER_0_5_51
*1519 FILLER_0_5_55
*1520 FILLER_0_5_57