*SPEF "ieee 1481-1999"
*DESIGN "tt_um_silva"
*DATE "11:11:11 Fri 11 11, 1111"
*VENDOR "OpenRCX"
*PROGRAM "Parallel Extraction"
*VERSION "1.0"
*DESIGN_FLOW "NAME_SCOPE LOCAL" "PIN_CAP NONE"
*DIVIDER /
*DELIMITER :
*BUS_DELIMITER []
*T_UNIT 1 NS
*C_UNIT 1 PF
*R_UNIT 1 OHM
*L_UNIT 1 HENRY

*NAME_MAP
*3 clk
*4 ena
*5 rst_n
*6 ui_in[0]
*7 ui_in[1]
*8 ui_in[2]
*9 ui_in[3]
*10 ui_in[4]
*11 ui_in[5]
*12 ui_in[6]
*13 ui_in[7]
*14 uio_in[0]
*15 uio_in[1]
*16 uio_in[2]
*17 uio_in[3]
*18 uio_in[4]
*19 uio_in[5]
*20 uio_in[6]
*21 uio_in[7]
*22 net11
*23 net12
*24 net13
*25 net14
*26 net15
*27 net16
*28 net17
*29 net18
*30 uio_out[0]
*31 uio_out[1]
*32 uio_out[2]
*33 uio_out[3]
*34 uio_out[4]
*35 net8
*36 net9
*37 net10
*38 net19
*39 net20
*40 net21
*41 net22
*42 net23
*43 net24
*44 net25
*45 net26
*46 _000_
*47 _001_
*48 _002_
*49 _003_
*50 _004_
*51 _005_
*52 _006_
*53 _007_
*54 _008_
*55 _009_
*56 _010_
*57 _011_
*58 _012_
*59 _013_
*60 _014_
*61 _015_
*62 _016_
*63 _017_
*64 _018_
*65 _019_
*66 _020_
*67 _021_
*68 _022_
*69 _023_
*70 _024_
*71 _025_
*72 _026_
*73 _027_
*74 _028_
*75 _029_
*76 _030_
*77 _031_
*78 _032_
*79 _033_
*80 _034_
*81 _035_
*82 _036_
*83 _037_
*84 _038_
*85 _039_
*86 _040_
*87 _041_
*88 _042_
*89 _043_
*90 _044_
*91 _045_
*92 _046_
*93 _047_
*94 _048_
*95 _049_
*96 _050_
*97 _051_
*98 _052_
*99 _053_
*100 _054_
*101 _055_
*102 _056_
*103 _057_
*104 _058_
*105 _059_
*106 _060_
*107 _061_
*108 _062_
*109 _063_
*110 _064_
*111 _065_
*112 _066_
*113 _067_
*114 _068_
*115 _069_
*116 _070_
*117 _071_
*118 _072_
*119 _073_
*120 _074_
*121 _075_
*122 _076_
*123 _077_
*124 _078_
*125 _079_
*126 _080_
*127 _081_
*128 _082_
*129 _083_
*130 _084_
*131 _085_
*132 _086_
*133 _087_
*134 _088_
*135 _089_
*136 _090_
*137 _091_
*138 _092_
*139 _093_
*140 _094_
*141 _095_
*142 _096_
*143 _097_
*144 _098_
*145 _099_
*146 _100_
*147 _101_
*148 _102_
*149 _103_
*150 _104_
*151 _105_
*152 _106_
*153 _107_
*154 _108_
*155 _109_
*156 _110_
*157 _111_
*158 _112_
*159 _113_
*160 _114_
*161 _115_
*162 _116_
*163 _117_
*164 _118_
*165 _119_
*166 _120_
*167 _121_
*168 clknet_0_clk
*169 clknet_1_0__leaf_clk
*170 clknet_1_1__leaf_clk
*171 mod_stepper\.clk_s
*172 mod_stepper\.count\[0\]
*173 mod_stepper\.count\[10\]
*174 mod_stepper\.count\[11\]
*175 mod_stepper\.count\[12\]
*176 mod_stepper\.count\[13\]
*177 mod_stepper\.count\[14\]
*178 mod_stepper\.count\[15\]
*179 mod_stepper\.count\[16\]
*180 mod_stepper\.count\[17\]
*181 mod_stepper\.count\[18\]
*182 mod_stepper\.count\[19\]
*183 mod_stepper\.count\[1\]
*184 mod_stepper\.count\[20\]
*185 mod_stepper\.count\[21\]
*186 mod_stepper\.count\[22\]
*187 mod_stepper\.count\[23\]
*188 mod_stepper\.count\[24\]
*189 mod_stepper\.count\[25\]
*190 mod_stepper\.count\[26\]
*191 mod_stepper\.count\[2\]
*192 mod_stepper\.count\[3\]
*193 mod_stepper\.count\[4\]
*194 mod_stepper\.count\[5\]
*195 mod_stepper\.count\[6\]
*196 mod_stepper\.count\[7\]
*197 mod_stepper\.count\[8\]
*198 mod_stepper\.count\[9\]
*199 mod_stepper\.state\[0\]
*200 mod_stepper\.state\[1\]
*201 mod_stepper\.state\[2\]
*202 mod_stepper\.state_next\[0\]
*203 mod_stepper\.state_next\[1\]
*204 mod_stepper\.state_next\[2\]
*205 net1
*206 net2
*207 net27
*208 net28
*209 net29
*210 net3
*211 net30
*212 net31
*213 net32
*214 net33
*215 net34
*216 net35
*217 net36
*218 net37
*219 net38
*220 net39
*221 net4
*222 net40
*223 net41
*224 net42
*225 net5
*226 net6
*227 net7
*228 FILLER_0_0_109
*229 FILLER_0_0_113
*230 FILLER_0_0_125
*231 FILLER_0_0_137
*232 FILLER_0_0_141
*233 FILLER_0_0_15
*234 FILLER_0_0_153
*235 FILLER_0_0_165
*236 FILLER_0_0_169
*237 FILLER_0_0_181
*238 FILLER_0_0_193
*239 FILLER_0_0_197
*240 FILLER_0_0_209
*241 FILLER_0_0_221
*242 FILLER_0_0_225
*243 FILLER_0_0_237
*244 FILLER_0_0_249
*245 FILLER_0_0_253
*246 FILLER_0_0_265
*247 FILLER_0_0_27
*248 FILLER_0_0_277
*249 FILLER_0_0_281
*250 FILLER_0_0_29
*251 FILLER_0_0_293
*252 FILLER_0_0_3
*253 FILLER_0_0_305
*254 FILLER_0_0_309
*255 FILLER_0_0_321
*256 FILLER_0_0_333
*257 FILLER_0_0_337
*258 FILLER_0_0_349
*259 FILLER_0_0_41
*260 FILLER_0_0_53
*261 FILLER_0_0_57
*262 FILLER_0_0_69
*263 FILLER_0_0_81
*264 FILLER_0_0_85
*265 FILLER_0_0_97
*266 FILLER_0_10_109
*267 FILLER_0_10_121
*268 FILLER_0_10_133
*269 FILLER_0_10_139
*270 FILLER_0_10_141
*271 FILLER_0_10_15
*272 FILLER_0_10_153
*273 FILLER_0_10_165
*274 FILLER_0_10_177
*275 FILLER_0_10_189
*276 FILLER_0_10_195
*277 FILLER_0_10_197
*278 FILLER_0_10_209
*279 FILLER_0_10_221
*280 FILLER_0_10_233
*281 FILLER_0_10_245
*282 FILLER_0_10_251
*283 FILLER_0_10_253
*284 FILLER_0_10_265
*285 FILLER_0_10_27
*286 FILLER_0_10_277
*287 FILLER_0_10_289
*288 FILLER_0_10_29
*289 FILLER_0_10_3
*290 FILLER_0_10_301
*291 FILLER_0_10_307
*292 FILLER_0_10_309
*293 FILLER_0_10_321
*294 FILLER_0_10_333
*295 FILLER_0_10_345
*296 FILLER_0_10_41
*297 FILLER_0_10_53
*298 FILLER_0_10_65
*299 FILLER_0_10_77
*300 FILLER_0_10_83
*301 FILLER_0_10_85
*302 FILLER_0_10_97
*303 FILLER_0_11_105
*304 FILLER_0_11_111
*305 FILLER_0_11_113
*306 FILLER_0_11_125
*307 FILLER_0_11_137
*308 FILLER_0_11_149
*309 FILLER_0_11_15
*310 FILLER_0_11_161
*311 FILLER_0_11_167
*312 FILLER_0_11_169
*313 FILLER_0_11_181
*314 FILLER_0_11_193
*315 FILLER_0_11_205
*316 FILLER_0_11_217
*317 FILLER_0_11_223
*318 FILLER_0_11_225
*319 FILLER_0_11_237
*320 FILLER_0_11_249
*321 FILLER_0_11_261
*322 FILLER_0_11_27
*323 FILLER_0_11_273
*324 FILLER_0_11_279
*325 FILLER_0_11_281
*326 FILLER_0_11_293
*327 FILLER_0_11_3
*328 FILLER_0_11_305
*329 FILLER_0_11_317
*330 FILLER_0_11_329
*331 FILLER_0_11_335
*332 FILLER_0_11_337
*333 FILLER_0_11_349
*334 FILLER_0_11_39
*335 FILLER_0_11_51
*336 FILLER_0_11_55
*337 FILLER_0_11_57
*338 FILLER_0_11_69
*339 FILLER_0_11_81
*340 FILLER_0_11_93
*341 FILLER_0_12_109
*342 FILLER_0_12_121
*343 FILLER_0_12_133
*344 FILLER_0_12_139
*345 FILLER_0_12_141
*346 FILLER_0_12_15
*347 FILLER_0_12_153
*348 FILLER_0_12_165
*349 FILLER_0_12_177
*350 FILLER_0_12_189
*351 FILLER_0_12_195
*352 FILLER_0_12_197
*353 FILLER_0_12_209
*354 FILLER_0_12_221
*355 FILLER_0_12_233
*356 FILLER_0_12_245
*357 FILLER_0_12_251
*358 FILLER_0_12_253
*359 FILLER_0_12_265
*360 FILLER_0_12_27
*361 FILLER_0_12_277
*362 FILLER_0_12_289
*363 FILLER_0_12_29
*364 FILLER_0_12_3
*365 FILLER_0_12_301
*366 FILLER_0_12_307
*367 FILLER_0_12_309
*368 FILLER_0_12_321
*369 FILLER_0_12_333
*370 FILLER_0_12_345
*371 FILLER_0_12_41
*372 FILLER_0_12_53
*373 FILLER_0_12_65
*374 FILLER_0_12_77
*375 FILLER_0_12_83
*376 FILLER_0_12_85
*377 FILLER_0_12_97
*378 FILLER_0_13_105
*379 FILLER_0_13_111
*380 FILLER_0_13_113
*381 FILLER_0_13_125
*382 FILLER_0_13_137
*383 FILLER_0_13_149
*384 FILLER_0_13_15
*385 FILLER_0_13_161
*386 FILLER_0_13_167
*387 FILLER_0_13_169
*388 FILLER_0_13_181
*389 FILLER_0_13_193
*390 FILLER_0_13_205
*391 FILLER_0_13_217
*392 FILLER_0_13_223
*393 FILLER_0_13_225
*394 FILLER_0_13_237
*395 FILLER_0_13_249
*396 FILLER_0_13_261
*397 FILLER_0_13_27
*398 FILLER_0_13_273
*399 FILLER_0_13_279
*400 FILLER_0_13_281
*401 FILLER_0_13_293
*402 FILLER_0_13_3
*403 FILLER_0_13_305
*404 FILLER_0_13_317
*405 FILLER_0_13_329
*406 FILLER_0_13_335
*407 FILLER_0_13_337
*408 FILLER_0_13_349
*409 FILLER_0_13_39
*410 FILLER_0_13_51
*411 FILLER_0_13_55
*412 FILLER_0_13_57
*413 FILLER_0_13_69
*414 FILLER_0_13_81
*415 FILLER_0_13_93
*416 FILLER_0_14_109
*417 FILLER_0_14_121
*418 FILLER_0_14_133
*419 FILLER_0_14_139
*420 FILLER_0_14_141
*421 FILLER_0_14_15
*422 FILLER_0_14_153
*423 FILLER_0_14_165
*424 FILLER_0_14_177
*425 FILLER_0_14_189
*426 FILLER_0_14_195
*427 FILLER_0_14_197
*428 FILLER_0_14_209
*429 FILLER_0_14_221
*430 FILLER_0_14_233
*431 FILLER_0_14_245
*432 FILLER_0_14_251
*433 FILLER_0_14_253
*434 FILLER_0_14_265
*435 FILLER_0_14_27
*436 FILLER_0_14_277
*437 FILLER_0_14_289
*438 FILLER_0_14_29
*439 FILLER_0_14_3
*440 FILLER_0_14_301
*441 FILLER_0_14_307
*442 FILLER_0_14_309
*443 FILLER_0_14_321
*444 FILLER_0_14_333
*445 FILLER_0_14_345
*446 FILLER_0_14_41
*447 FILLER_0_14_53
*448 FILLER_0_14_65
*449 FILLER_0_14_77
*450 FILLER_0_14_83
*451 FILLER_0_14_85
*452 FILLER_0_14_97
*453 FILLER_0_15_105
*454 FILLER_0_15_111
*455 FILLER_0_15_113
*456 FILLER_0_15_125
*457 FILLER_0_15_137
*458 FILLER_0_15_149
*459 FILLER_0_15_15
*460 FILLER_0_15_161
*461 FILLER_0_15_167
*462 FILLER_0_15_169
*463 FILLER_0_15_181
*464 FILLER_0_15_193
*465 FILLER_0_15_205
*466 FILLER_0_15_217
*467 FILLER_0_15_223
*468 FILLER_0_15_225
*469 FILLER_0_15_237
*470 FILLER_0_15_249
*471 FILLER_0_15_261
*472 FILLER_0_15_27
*473 FILLER_0_15_273
*474 FILLER_0_15_279
*475 FILLER_0_15_281
*476 FILLER_0_15_293
*477 FILLER_0_15_3
*478 FILLER_0_15_305
*479 FILLER_0_15_317
*480 FILLER_0_15_329
*481 FILLER_0_15_335
*482 FILLER_0_15_337
*483 FILLER_0_15_349
*484 FILLER_0_15_39
*485 FILLER_0_15_51
*486 FILLER_0_15_55
*487 FILLER_0_15_57
*488 FILLER_0_15_69
*489 FILLER_0_15_81
*490 FILLER_0_15_93
*491 FILLER_0_16_109
*492 FILLER_0_16_121
*493 FILLER_0_16_133
*494 FILLER_0_16_139
*495 FILLER_0_16_141
*496 FILLER_0_16_15
*497 FILLER_0_16_153
*498 FILLER_0_16_165
*499 FILLER_0_16_177
*500 FILLER_0_16_189
*501 FILLER_0_16_195
*502 FILLER_0_16_197
*503 FILLER_0_16_209
*504 FILLER_0_16_221
*505 FILLER_0_16_233
*506 FILLER_0_16_245
*507 FILLER_0_16_251
*508 FILLER_0_16_253
*509 FILLER_0_16_265
*510 FILLER_0_16_27
*511 FILLER_0_16_277
*512 FILLER_0_16_289
*513 FILLER_0_16_29
*514 FILLER_0_16_3
*515 FILLER_0_16_301
*516 FILLER_0_16_307
*517 FILLER_0_16_309
*518 FILLER_0_16_321
*519 FILLER_0_16_333
*520 FILLER_0_16_345
*521 FILLER_0_16_41
*522 FILLER_0_16_53
*523 FILLER_0_16_65
*524 FILLER_0_16_77
*525 FILLER_0_16_83
*526 FILLER_0_16_85
*527 FILLER_0_16_97
*528 FILLER_0_17_105
*529 FILLER_0_17_111
*530 FILLER_0_17_113
*531 FILLER_0_17_125
*532 FILLER_0_17_137
*533 FILLER_0_17_149
*534 FILLER_0_17_15
*535 FILLER_0_17_161
*536 FILLER_0_17_167
*537 FILLER_0_17_169
*538 FILLER_0_17_181
*539 FILLER_0_17_193
*540 FILLER_0_17_205
*541 FILLER_0_17_217
*542 FILLER_0_17_223
*543 FILLER_0_17_225
*544 FILLER_0_17_237
*545 FILLER_0_17_249
*546 FILLER_0_17_261
*547 FILLER_0_17_27
*548 FILLER_0_17_273
*549 FILLER_0_17_279
*550 FILLER_0_17_281
*551 FILLER_0_17_293
*552 FILLER_0_17_3
*553 FILLER_0_17_305
*554 FILLER_0_17_317
*555 FILLER_0_17_329
*556 FILLER_0_17_335
*557 FILLER_0_17_337
*558 FILLER_0_17_349
*559 FILLER_0_17_39
*560 FILLER_0_17_51
*561 FILLER_0_17_55
*562 FILLER_0_17_57
*563 FILLER_0_17_69
*564 FILLER_0_17_81
*565 FILLER_0_17_93
*566 FILLER_0_18_109
*567 FILLER_0_18_121
*568 FILLER_0_18_133
*569 FILLER_0_18_139
*570 FILLER_0_18_141
*571 FILLER_0_18_15
*572 FILLER_0_18_153
*573 FILLER_0_18_165
*574 FILLER_0_18_177
*575 FILLER_0_18_189
*576 FILLER_0_18_195
*577 FILLER_0_18_197
*578 FILLER_0_18_209
*579 FILLER_0_18_221
*580 FILLER_0_18_233
*581 FILLER_0_18_245
*582 FILLER_0_18_251
*583 FILLER_0_18_253
*584 FILLER_0_18_265
*585 FILLER_0_18_27
*586 FILLER_0_18_277
*587 FILLER_0_18_289
*588 FILLER_0_18_29
*589 FILLER_0_18_3
*590 FILLER_0_18_301
*591 FILLER_0_18_307
*592 FILLER_0_18_309
*593 FILLER_0_18_321
*594 FILLER_0_18_333
*595 FILLER_0_18_345
*596 FILLER_0_18_41
*597 FILLER_0_18_53
*598 FILLER_0_18_65
*599 FILLER_0_18_77
*600 FILLER_0_18_83
*601 FILLER_0_18_85
*602 FILLER_0_18_97
*603 FILLER_0_19_105
*604 FILLER_0_19_111
*605 FILLER_0_19_113
*606 FILLER_0_19_125
*607 FILLER_0_19_137
*608 FILLER_0_19_149
*609 FILLER_0_19_15
*610 FILLER_0_19_161
*611 FILLER_0_19_167
*612 FILLER_0_19_169
*613 FILLER_0_19_181
*614 FILLER_0_19_193
*615 FILLER_0_19_205
*616 FILLER_0_19_217
*617 FILLER_0_19_223
*618 FILLER_0_19_225
*619 FILLER_0_19_237
*620 FILLER_0_19_249
*621 FILLER_0_19_261
*622 FILLER_0_19_27
*623 FILLER_0_19_273
*624 FILLER_0_19_279
*625 FILLER_0_19_281
*626 FILLER_0_19_293
*627 FILLER_0_19_3
*628 FILLER_0_19_305
*629 FILLER_0_19_317
*630 FILLER_0_19_329
*631 FILLER_0_19_335
*632 FILLER_0_19_337
*633 FILLER_0_19_349
*634 FILLER_0_19_39
*635 FILLER_0_19_51
*636 FILLER_0_19_55
*637 FILLER_0_19_57
*638 FILLER_0_19_69
*639 FILLER_0_19_81
*640 FILLER_0_19_93
*641 FILLER_0_1_105
*642 FILLER_0_1_111
*643 FILLER_0_1_113
*644 FILLER_0_1_125
*645 FILLER_0_1_137
*646 FILLER_0_1_149
*647 FILLER_0_1_15
*648 FILLER_0_1_161
*649 FILLER_0_1_167
*650 FILLER_0_1_169
*651 FILLER_0_1_181
*652 FILLER_0_1_193
*653 FILLER_0_1_205
*654 FILLER_0_1_217
*655 FILLER_0_1_223
*656 FILLER_0_1_225
*657 FILLER_0_1_237
*658 FILLER_0_1_249
*659 FILLER_0_1_261
*660 FILLER_0_1_27
*661 FILLER_0_1_273
*662 FILLER_0_1_279
*663 FILLER_0_1_281
*664 FILLER_0_1_293
*665 FILLER_0_1_3
*666 FILLER_0_1_305
*667 FILLER_0_1_317
*668 FILLER_0_1_329
*669 FILLER_0_1_335
*670 FILLER_0_1_337
*671 FILLER_0_1_349
*672 FILLER_0_1_39
*673 FILLER_0_1_51
*674 FILLER_0_1_55
*675 FILLER_0_1_57
*676 FILLER_0_1_69
*677 FILLER_0_1_81
*678 FILLER_0_1_93
*679 FILLER_0_20_109
*680 FILLER_0_20_121
*681 FILLER_0_20_133
*682 FILLER_0_20_139
*683 FILLER_0_20_141
*684 FILLER_0_20_15
*685 FILLER_0_20_153
*686 FILLER_0_20_165
*687 FILLER_0_20_177
*688 FILLER_0_20_189
*689 FILLER_0_20_195
*690 FILLER_0_20_197
*691 FILLER_0_20_209
*692 FILLER_0_20_221
*693 FILLER_0_20_233
*694 FILLER_0_20_245
*695 FILLER_0_20_251
*696 FILLER_0_20_253
*697 FILLER_0_20_265
*698 FILLER_0_20_27
*699 FILLER_0_20_277
*700 FILLER_0_20_289
*701 FILLER_0_20_29
*702 FILLER_0_20_3
*703 FILLER_0_20_301
*704 FILLER_0_20_307
*705 FILLER_0_20_309
*706 FILLER_0_20_321
*707 FILLER_0_20_333
*708 FILLER_0_20_345
*709 FILLER_0_20_41
*710 FILLER_0_20_53
*711 FILLER_0_20_65
*712 FILLER_0_20_77
*713 FILLER_0_20_83
*714 FILLER_0_20_85
*715 FILLER_0_20_97
*716 FILLER_0_21_105
*717 FILLER_0_21_111
*718 FILLER_0_21_113
*719 FILLER_0_21_125
*720 FILLER_0_21_137
*721 FILLER_0_21_149
*722 FILLER_0_21_15
*723 FILLER_0_21_161
*724 FILLER_0_21_167
*725 FILLER_0_21_169
*726 FILLER_0_21_181
*727 FILLER_0_21_193
*728 FILLER_0_21_205
*729 FILLER_0_21_217
*730 FILLER_0_21_223
*731 FILLER_0_21_225
*732 FILLER_0_21_237
*733 FILLER_0_21_249
*734 FILLER_0_21_261
*735 FILLER_0_21_27
*736 FILLER_0_21_273
*737 FILLER_0_21_279
*738 FILLER_0_21_281
*739 FILLER_0_21_293
*740 FILLER_0_21_3
*741 FILLER_0_21_305
*742 FILLER_0_21_317
*743 FILLER_0_21_329
*744 FILLER_0_21_335
*745 FILLER_0_21_337
*746 FILLER_0_21_349
*747 FILLER_0_21_39
*748 FILLER_0_21_51
*749 FILLER_0_21_55
*750 FILLER_0_21_57
*751 FILLER_0_21_69
*752 FILLER_0_21_81
*753 FILLER_0_21_93
*754 FILLER_0_22_109
*755 FILLER_0_22_121
*756 FILLER_0_22_133
*757 FILLER_0_22_139
*758 FILLER_0_22_141
*759 FILLER_0_22_15
*760 FILLER_0_22_153
*761 FILLER_0_22_165
*762 FILLER_0_22_177
*763 FILLER_0_22_189
*764 FILLER_0_22_195
*765 FILLER_0_22_197
*766 FILLER_0_22_209
*767 FILLER_0_22_221
*768 FILLER_0_22_233
*769 FILLER_0_22_245
*770 FILLER_0_22_251
*771 FILLER_0_22_253
*772 FILLER_0_22_265
*773 FILLER_0_22_27
*774 FILLER_0_22_277
*775 FILLER_0_22_289
*776 FILLER_0_22_29
*777 FILLER_0_22_3
*778 FILLER_0_22_301
*779 FILLER_0_22_307
*780 FILLER_0_22_309
*781 FILLER_0_22_321
*782 FILLER_0_22_333
*783 FILLER_0_22_345
*784 FILLER_0_22_41
*785 FILLER_0_22_53
*786 FILLER_0_22_65
*787 FILLER_0_22_77
*788 FILLER_0_22_83
*789 FILLER_0_22_85
*790 FILLER_0_22_97
*791 FILLER_0_23_105
*792 FILLER_0_23_111
*793 FILLER_0_23_113
*794 FILLER_0_23_125
*795 FILLER_0_23_137
*796 FILLER_0_23_149
*797 FILLER_0_23_15
*798 FILLER_0_23_161
*799 FILLER_0_23_167
*800 FILLER_0_23_169
*801 FILLER_0_23_181
*802 FILLER_0_23_193
*803 FILLER_0_23_205
*804 FILLER_0_23_217
*805 FILLER_0_23_223
*806 FILLER_0_23_225
*807 FILLER_0_23_237
*808 FILLER_0_23_249
*809 FILLER_0_23_261
*810 FILLER_0_23_27
*811 FILLER_0_23_273
*812 FILLER_0_23_279
*813 FILLER_0_23_281
*814 FILLER_0_23_293
*815 FILLER_0_23_3
*816 FILLER_0_23_305
*817 FILLER_0_23_317
*818 FILLER_0_23_329
*819 FILLER_0_23_335
*820 FILLER_0_23_337
*821 FILLER_0_23_349
*822 FILLER_0_23_39
*823 FILLER_0_23_51
*824 FILLER_0_23_55
*825 FILLER_0_23_57
*826 FILLER_0_23_69
*827 FILLER_0_23_81
*828 FILLER_0_23_93
*829 FILLER_0_24_109
*830 FILLER_0_24_121
*831 FILLER_0_24_133
*832 FILLER_0_24_139
*833 FILLER_0_24_141
*834 FILLER_0_24_15
*835 FILLER_0_24_153
*836 FILLER_0_24_165
*837 FILLER_0_24_177
*838 FILLER_0_24_189
*839 FILLER_0_24_195
*840 FILLER_0_24_197
*841 FILLER_0_24_209
*842 FILLER_0_24_221
*843 FILLER_0_24_233
*844 FILLER_0_24_245
*845 FILLER_0_24_251
*846 FILLER_0_24_253
*847 FILLER_0_24_265
*848 FILLER_0_24_27
*849 FILLER_0_24_277
*850 FILLER_0_24_289
*851 FILLER_0_24_29
*852 FILLER_0_24_3
*853 FILLER_0_24_301
*854 FILLER_0_24_307
*855 FILLER_0_24_309
*856 FILLER_0_24_321
*857 FILLER_0_24_333
*858 FILLER_0_24_345
*859 FILLER_0_24_41
*860 FILLER_0_24_53
*861 FILLER_0_24_65
*862 FILLER_0_24_77
*863 FILLER_0_24_83
*864 FILLER_0_24_85
*865 FILLER_0_24_97
*866 FILLER_0_25_105
*867 FILLER_0_25_111
*868 FILLER_0_25_113
*869 FILLER_0_25_125
*870 FILLER_0_25_137
*871 FILLER_0_25_149
*872 FILLER_0_25_15
*873 FILLER_0_25_161
*874 FILLER_0_25_167
*875 FILLER_0_25_169
*876 FILLER_0_25_181
*877 FILLER_0_25_193
*878 FILLER_0_25_197
*879 FILLER_0_25_209
*880 FILLER_0_25_217
*881 FILLER_0_25_221
*882 FILLER_0_25_225
*883 FILLER_0_25_248
*884 FILLER_0_25_260
*885 FILLER_0_25_27
*886 FILLER_0_25_275
*887 FILLER_0_25_279
*888 FILLER_0_25_3
*889 FILLER_0_25_301
*890 FILLER_0_25_313
*891 FILLER_0_25_325
*892 FILLER_0_25_333
*893 FILLER_0_25_337
*894 FILLER_0_25_349
*895 FILLER_0_25_39
*896 FILLER_0_25_51
*897 FILLER_0_25_55
*898 FILLER_0_25_57
*899 FILLER_0_25_69
*900 FILLER_0_25_81
*901 FILLER_0_25_93
*902 FILLER_0_26_109
*903 FILLER_0_26_121
*904 FILLER_0_26_133
*905 FILLER_0_26_139
*906 FILLER_0_26_141
*907 FILLER_0_26_15
*908 FILLER_0_26_153
*909 FILLER_0_26_176
*910 FILLER_0_26_184
*911 FILLER_0_26_260
*912 FILLER_0_26_27
*913 FILLER_0_26_29
*914 FILLER_0_26_3
*915 FILLER_0_26_306
*916 FILLER_0_26_309
*917 FILLER_0_26_321
*918 FILLER_0_26_333
*919 FILLER_0_26_345
*920 FILLER_0_26_41
*921 FILLER_0_26_53
*922 FILLER_0_26_65
*923 FILLER_0_26_77
*924 FILLER_0_26_83
*925 FILLER_0_26_85
*926 FILLER_0_26_97
*927 FILLER_0_27_105
*928 FILLER_0_27_111
*929 FILLER_0_27_113
*930 FILLER_0_27_125
*931 FILLER_0_27_137
*932 FILLER_0_27_149
*933 FILLER_0_27_15
*934 FILLER_0_27_162
*935 FILLER_0_27_169
*936 FILLER_0_27_173
*937 FILLER_0_27_201
*938 FILLER_0_27_213
*939 FILLER_0_27_232
*940 FILLER_0_27_261
*941 FILLER_0_27_27
*942 FILLER_0_27_289
*943 FILLER_0_27_3
*944 FILLER_0_27_313
*945 FILLER_0_27_325
*946 FILLER_0_27_333
*947 FILLER_0_27_337
*948 FILLER_0_27_349
*949 FILLER_0_27_39
*950 FILLER_0_27_51
*951 FILLER_0_27_55
*952 FILLER_0_27_57
*953 FILLER_0_27_69
*954 FILLER_0_27_81
*955 FILLER_0_27_93
*956 FILLER_0_28_109
*957 FILLER_0_28_121
*958 FILLER_0_28_133
*959 FILLER_0_28_139
*960 FILLER_0_28_141
*961 FILLER_0_28_15
*962 FILLER_0_28_153
*963 FILLER_0_28_175
*964 FILLER_0_28_195
*965 FILLER_0_28_217
*966 FILLER_0_28_230
*967 FILLER_0_28_249
*968 FILLER_0_28_27
*969 FILLER_0_28_29
*970 FILLER_0_28_3
*971 FILLER_0_28_309
*972 FILLER_0_28_321
*973 FILLER_0_28_333
*974 FILLER_0_28_345
*975 FILLER_0_28_41
*976 FILLER_0_28_53
*977 FILLER_0_28_65
*978 FILLER_0_28_77
*979 FILLER_0_28_83
*980 FILLER_0_28_85
*981 FILLER_0_28_97
*982 FILLER_0_29_105
*983 FILLER_0_29_111
*984 FILLER_0_29_113
*985 FILLER_0_29_125
*986 FILLER_0_29_137
*987 FILLER_0_29_149
*988 FILLER_0_29_15
*989 FILLER_0_29_161
*990 FILLER_0_29_200
*991 FILLER_0_29_212
*992 FILLER_0_29_225
*993 FILLER_0_29_237
*994 FILLER_0_29_243
*995 FILLER_0_29_251
*996 FILLER_0_29_262
*997 FILLER_0_29_27
*998 FILLER_0_29_274
*999 FILLER_0_29_281
*1000 FILLER_0_29_298
*1001 FILLER_0_29_3
*1002 FILLER_0_29_308
*1003 FILLER_0_29_320
*1004 FILLER_0_29_332
*1005 FILLER_0_29_337
*1006 FILLER_0_29_349
*1007 FILLER_0_29_39
*1008 FILLER_0_29_51
*1009 FILLER_0_29_55
*1010 FILLER_0_29_57
*1011 FILLER_0_29_69
*1012 FILLER_0_29_81
*1013 FILLER_0_29_93
*1014 FILLER_0_2_109
*1015 FILLER_0_2_121
*1016 FILLER_0_2_133
*1017 FILLER_0_2_139
*1018 FILLER_0_2_141
*1019 FILLER_0_2_15
*1020 FILLER_0_2_153
*1021 FILLER_0_2_165
*1022 FILLER_0_2_177
*1023 FILLER_0_2_189
*1024 FILLER_0_2_195
*1025 FILLER_0_2_197
*1026 FILLER_0_2_209
*1027 FILLER_0_2_221
*1028 FILLER_0_2_233
*1029 FILLER_0_2_245
*1030 FILLER_0_2_251
*1031 FILLER_0_2_253
*1032 FILLER_0_2_265
*1033 FILLER_0_2_27
*1034 FILLER_0_2_277
*1035 FILLER_0_2_289
*1036 FILLER_0_2_29
*1037 FILLER_0_2_3
*1038 FILLER_0_2_301
*1039 FILLER_0_2_307
*1040 FILLER_0_2_309
*1041 FILLER_0_2_321
*1042 FILLER_0_2_333
*1043 FILLER_0_2_345
*1044 FILLER_0_2_41
*1045 FILLER_0_2_53
*1046 FILLER_0_2_65
*1047 FILLER_0_2_77
*1048 FILLER_0_2_83
*1049 FILLER_0_2_85
*1050 FILLER_0_2_97
*1051 FILLER_0_30_109
*1052 FILLER_0_30_121
*1053 FILLER_0_30_133
*1054 FILLER_0_30_139
*1055 FILLER_0_30_141
*1056 FILLER_0_30_149
*1057 FILLER_0_30_15
*1058 FILLER_0_30_185
*1059 FILLER_0_30_193
*1060 FILLER_0_30_197
*1061 FILLER_0_30_209
*1062 FILLER_0_30_217
*1063 FILLER_0_30_224
*1064 FILLER_0_30_238
*1065 FILLER_0_30_251
*1066 FILLER_0_30_253
*1067 FILLER_0_30_27
*1068 FILLER_0_30_270
*1069 FILLER_0_30_278
*1070 FILLER_0_30_289
*1071 FILLER_0_30_29
*1072 FILLER_0_30_3
*1073 FILLER_0_30_302
*1074 FILLER_0_30_309
*1075 FILLER_0_30_321
*1076 FILLER_0_30_333
*1077 FILLER_0_30_345
*1078 FILLER_0_30_41
*1079 FILLER_0_30_53
*1080 FILLER_0_30_65
*1081 FILLER_0_30_77
*1082 FILLER_0_30_83
*1083 FILLER_0_30_85
*1084 FILLER_0_30_97
*1085 FILLER_0_31_105
*1086 FILLER_0_31_111
*1087 FILLER_0_31_113
*1088 FILLER_0_31_125
*1089 FILLER_0_31_137
*1090 FILLER_0_31_149
*1091 FILLER_0_31_15
*1092 FILLER_0_31_161
*1093 FILLER_0_31_167
*1094 FILLER_0_31_180
*1095 FILLER_0_31_192
*1096 FILLER_0_31_198
*1097 FILLER_0_31_222
*1098 FILLER_0_31_232
*1099 FILLER_0_31_27
*1100 FILLER_0_31_278
*1101 FILLER_0_31_3
*1102 FILLER_0_31_330
*1103 FILLER_0_31_337
*1104 FILLER_0_31_349
*1105 FILLER_0_31_39
*1106 FILLER_0_31_51
*1107 FILLER_0_31_55
*1108 FILLER_0_31_57
*1109 FILLER_0_31_69
*1110 FILLER_0_31_81
*1111 FILLER_0_31_93
*1112 FILLER_0_32_109
*1113 FILLER_0_32_121
*1114 FILLER_0_32_133
*1115 FILLER_0_32_139
*1116 FILLER_0_32_141
*1117 FILLER_0_32_15
*1118 FILLER_0_32_153
*1119 FILLER_0_32_165
*1120 FILLER_0_32_177
*1121 FILLER_0_32_189
*1122 FILLER_0_32_229
*1123 FILLER_0_32_241
*1124 FILLER_0_32_251
*1125 FILLER_0_32_269
*1126 FILLER_0_32_27
*1127 FILLER_0_32_286
*1128 FILLER_0_32_29
*1129 FILLER_0_32_3
*1130 FILLER_0_32_303
*1131 FILLER_0_32_307
*1132 FILLER_0_32_309
*1133 FILLER_0_32_321
*1134 FILLER_0_32_333
*1135 FILLER_0_32_345
*1136 FILLER_0_32_41
*1137 FILLER_0_32_53
*1138 FILLER_0_32_65
*1139 FILLER_0_32_77
*1140 FILLER_0_32_83
*1141 FILLER_0_32_85
*1142 FILLER_0_32_97
*1143 FILLER_0_33_105
*1144 FILLER_0_33_111
*1145 FILLER_0_33_113
*1146 FILLER_0_33_118
*1147 FILLER_0_33_126
*1148 FILLER_0_33_130
*1149 FILLER_0_33_140
*1150 FILLER_0_33_15
*1151 FILLER_0_33_152
*1152 FILLER_0_33_160
*1153 FILLER_0_33_175
*1154 FILLER_0_33_187
*1155 FILLER_0_33_225
*1156 FILLER_0_33_237
*1157 FILLER_0_33_27
*1158 FILLER_0_33_270
*1159 FILLER_0_33_278
*1160 FILLER_0_33_281
*1161 FILLER_0_33_293
*1162 FILLER_0_33_3
*1163 FILLER_0_33_305
*1164 FILLER_0_33_317
*1165 FILLER_0_33_329
*1166 FILLER_0_33_335
*1167 FILLER_0_33_337
*1168 FILLER_0_33_349
*1169 FILLER_0_33_39
*1170 FILLER_0_33_51
*1171 FILLER_0_33_55
*1172 FILLER_0_33_57
*1173 FILLER_0_33_69
*1174 FILLER_0_33_81
*1175 FILLER_0_33_93
*1176 FILLER_0_34_105
*1177 FILLER_0_34_124
*1178 FILLER_0_34_141
*1179 FILLER_0_34_15
*1180 FILLER_0_34_154
*1181 FILLER_0_34_169
*1182 FILLER_0_34_188
*1183 FILLER_0_34_197
*1184 FILLER_0_34_205
*1185 FILLER_0_34_211
*1186 FILLER_0_34_220
*1187 FILLER_0_34_232
*1188 FILLER_0_34_244
*1189 FILLER_0_34_249
*1190 FILLER_0_34_253
*1191 FILLER_0_34_269
*1192 FILLER_0_34_27
*1193 FILLER_0_34_281
*1194 FILLER_0_34_29
*1195 FILLER_0_34_3
*1196 FILLER_0_34_301
*1197 FILLER_0_34_307
*1198 FILLER_0_34_309
*1199 FILLER_0_34_321
*1200 FILLER_0_34_333
*1201 FILLER_0_34_345
*1202 FILLER_0_34_41
*1203 FILLER_0_34_53
*1204 FILLER_0_34_65
*1205 FILLER_0_34_77
*1206 FILLER_0_34_83
*1207 FILLER_0_34_85
*1208 FILLER_0_34_97
*1209 FILLER_0_35_105
*1210 FILLER_0_35_111
*1211 FILLER_0_35_134
*1212 FILLER_0_35_145
*1213 FILLER_0_35_15
*1214 FILLER_0_35_166
*1215 FILLER_0_35_172
*1216 FILLER_0_35_180
*1217 FILLER_0_35_205
*1218 FILLER_0_35_212
*1219 FILLER_0_35_219
*1220 FILLER_0_35_223
*1221 FILLER_0_35_245
*1222 FILLER_0_35_250
*1223 FILLER_0_35_27
*1224 FILLER_0_35_278
*1225 FILLER_0_35_3
*1226 FILLER_0_35_305
*1227 FILLER_0_35_332
*1228 FILLER_0_35_337
*1229 FILLER_0_35_349
*1230 FILLER_0_35_39
*1231 FILLER_0_35_51
*1232 FILLER_0_35_55
*1233 FILLER_0_35_57
*1234 FILLER_0_35_69
*1235 FILLER_0_35_81
*1236 FILLER_0_35_93
*1237 FILLER_0_36_120
*1238 FILLER_0_36_138
*1239 FILLER_0_36_144
*1240 FILLER_0_36_15
*1241 FILLER_0_36_163
*1242 FILLER_0_36_175
*1243 FILLER_0_36_193
*1244 FILLER_0_36_197
*1245 FILLER_0_36_201
*1246 FILLER_0_36_27
*1247 FILLER_0_36_286
*1248 FILLER_0_36_29
*1249 FILLER_0_36_3
*1250 FILLER_0_36_309
*1251 FILLER_0_36_313
*1252 FILLER_0_36_322
*1253 FILLER_0_36_334
*1254 FILLER_0_36_346
*1255 FILLER_0_36_350
*1256 FILLER_0_36_41
*1257 FILLER_0_36_53
*1258 FILLER_0_36_65
*1259 FILLER_0_36_77
*1260 FILLER_0_36_83
*1261 FILLER_0_36_85
*1262 FILLER_0_37_127
*1263 FILLER_0_37_133
*1264 FILLER_0_37_145
*1265 FILLER_0_37_15
*1266 FILLER_0_37_166
*1267 FILLER_0_37_186
*1268 FILLER_0_37_204
*1269 FILLER_0_37_210
*1270 FILLER_0_37_222
*1271 FILLER_0_37_232
*1272 FILLER_0_37_249
*1273 FILLER_0_37_260
*1274 FILLER_0_37_27
*1275 FILLER_0_37_270
*1276 FILLER_0_37_281
*1277 FILLER_0_37_3
*1278 FILLER_0_37_307
*1279 FILLER_0_37_319
*1280 FILLER_0_37_331
*1281 FILLER_0_37_335
*1282 FILLER_0_37_337
*1283 FILLER_0_37_349
*1284 FILLER_0_37_39
*1285 FILLER_0_37_51
*1286 FILLER_0_37_55
*1287 FILLER_0_37_57
*1288 FILLER_0_37_69
*1289 FILLER_0_37_81
*1290 FILLER_0_37_93
*1291 FILLER_0_38_119
*1292 FILLER_0_38_131
*1293 FILLER_0_38_139
*1294 FILLER_0_38_14
*1295 FILLER_0_38_144
*1296 FILLER_0_38_150
*1297 FILLER_0_38_162
*1298 FILLER_0_38_166
*1299 FILLER_0_38_169
*1300 FILLER_0_38_174
*1301 FILLER_0_38_178
*1302 FILLER_0_38_18
*1303 FILLER_0_38_182
*1304 FILLER_0_38_194
*1305 FILLER_0_38_200
*1306 FILLER_0_38_212
*1307 FILLER_0_38_22
*1308 FILLER_0_38_225
*1309 FILLER_0_38_237
*1310 FILLER_0_38_245
*1311 FILLER_0_38_250
*1312 FILLER_0_38_253
*1313 FILLER_0_38_265
*1314 FILLER_0_38_277
*1315 FILLER_0_38_281
*1316 FILLER_0_38_289
*1317 FILLER_0_38_3
*1318 FILLER_0_38_303
*1319 FILLER_0_38_307
*1320 FILLER_0_38_309
*1321 FILLER_0_38_319
*1322 FILLER_0_38_32
*1323 FILLER_0_38_326
*1324 FILLER_0_38_330
*1325 FILLER_0_38_334
*1326 FILLER_0_38_337
*1327 FILLER_0_38_349
*1328 FILLER_0_38_38
*1329 FILLER_0_38_42
*1330 FILLER_0_38_46
*1331 FILLER_0_38_50
*1332 FILLER_0_38_54
*1333 FILLER_0_38_57
*1334 FILLER_0_38_62
*1335 FILLER_0_38_66
*1336 FILLER_0_38_70
*1337 FILLER_0_38_74
*1338 FILLER_0_38_78
*1339 FILLER_0_38_88
*1340 FILLER_0_38_94
*1341 FILLER_0_3_105
*1342 FILLER_0_3_111
*1343 FILLER_0_3_113
*1344 FILLER_0_3_125
*1345 FILLER_0_3_137
*1346 FILLER_0_3_149
*1347 FILLER_0_3_15
*1348 FILLER_0_3_161
*1349 FILLER_0_3_167
*1350 FILLER_0_3_169
*1351 FILLER_0_3_181
*1352 FILLER_0_3_193
*1353 FILLER_0_3_205
*1354 FILLER_0_3_217
*1355 FILLER_0_3_223
*1356 FILLER_0_3_225
*1357 FILLER_0_3_237
*1358 FILLER_0_3_249
*1359 FILLER_0_3_261
*1360 FILLER_0_3_27
*1361 FILLER_0_3_273
*1362 FILLER_0_3_279
*1363 FILLER_0_3_281
*1364 FILLER_0_3_293
*1365 FILLER_0_3_3
*1366 FILLER_0_3_305
*1367 FILLER_0_3_317
*1368 FILLER_0_3_329
*1369 FILLER_0_3_335
*1370 FILLER_0_3_337
*1371 FILLER_0_3_349
*1372 FILLER_0_3_39
*1373 FILLER_0_3_51
*1374 FILLER_0_3_55
*1375 FILLER_0_3_57
*1376 FILLER_0_3_69
*1377 FILLER_0_3_81
*1378 FILLER_0_3_93
*1379 FILLER_0_4_109
*1380 FILLER_0_4_121
*1381 FILLER_0_4_133
*1382 FILLER_0_4_139
*1383 FILLER_0_4_141
*1384 FILLER_0_4_15
*1385 FILLER_0_4_153
*1386 FILLER_0_4_165
*1387 FILLER_0_4_177
*1388 FILLER_0_4_189
*1389 FILLER_0_4_195
*1390 FILLER_0_4_197
*1391 FILLER_0_4_209
*1392 FILLER_0_4_221
*1393 FILLER_0_4_233
*1394 FILLER_0_4_245
*1395 FILLER_0_4_251
*1396 FILLER_0_4_253
*1397 FILLER_0_4_265
*1398 FILLER_0_4_27
*1399 FILLER_0_4_277
*1400 FILLER_0_4_289
*1401 FILLER_0_4_29
*1402 FILLER_0_4_3
*1403 FILLER_0_4_301
*1404 FILLER_0_4_307
*1405 FILLER_0_4_309
*1406 FILLER_0_4_321
*1407 FILLER_0_4_333
*1408 FILLER_0_4_345
*1409 FILLER_0_4_41
*1410 FILLER_0_4_53
*1411 FILLER_0_4_65
*1412 FILLER_0_4_77
*1413 FILLER_0_4_83
*1414 FILLER_0_4_85
*1415 FILLER_0_4_97
*1416 FILLER_0_5_105
*1417 FILLER_0_5_111
*1418 FILLER_0_5_113
*1419 FILLER_0_5_125
*1420 FILLER_0_5_137
*1421 FILLER_0_5_149
*1422 FILLER_0_5_15
*1423 FILLER_0_5_161
*1424 FILLER_0_5_167
*1425 FILLER_0_5_169
*1426 FILLER_0_5_181
*1427 FILLER_0_5_193
*1428 FILLER_0_5_205
*1429 FILLER_0_5_217
*1430 FILLER_0_5_223
*1431 FILLER_0_5_225
*1432 FILLER_0_5_237
*1433 FILLER_0_5_249
*1434 FILLER_0_5_261
*1435 FILLER_0_5_27
*1436 FILLER_0_5_273
*1437 FILLER_0_5_279
*1438 FILLER_0_5_281
*1439 FILLER_0_5_293
*1440 FILLER_0_5_3
*1441 FILLER_0_5_305
*1442 FILLER_0_5_317
*1443 FILLER_0_5_329
*1444 FILLER_0_5_335
*1445 FILLER_0_5_337
*1446 FILLER_0_5_349
*1447 FILLER_0_5_39
*1448 FILLER_0_5_51
*1449 FILLER_0_5_55
*1450 FILLER_0_5_57
*1451 FILLER_0_5_69
*1452 FILLER_0_5_81
*1453 FILLER_0_5_93
*1454 FILLER_0_6_109
*1455 FILLER_0_6_121
*1456 FILLER_0_6_133
*1457 FILLER_0_6_139
*1458 FILLER_0_6_141
*1459 FILLER_0_6_15
*1460 FILLER_0_6_153
*1461 FILLER_0_6_165
*1462 FILLER_0_6_177
*1463 FILLER_0_6_189
*1464 FILLER_0_6_195
*1465 FILLER_0_6_197
*1466 FILLER_0_6_209
*1467 FILLER_0_6_221
*1468 FILLER_0_6_233
*1469 FILLER_0_6_245
*1470 FILLER_0_6_251
*1471 FILLER_0_6_253
*1472 FILLER_0_6_265
*1473 FILLER_0_6_27
*1474 FILLER_0_6_277
*1475 FILLER_0_6_289
*1476 FILLER_0_6_29
*1477 FILLER_0_6_3
*1478 FILLER_0_6_301
*1479 FILLER_0_6_307
*1480 FILLER_0_6_309
*1481 FILLER_0_6_321
*1482 FILLER_0_6_333
*1483 FILLER_0_6_345
*1484 FILLER_0_6_41
*1485 FILLER_0_6_53
*1486 FILLER_0_6_65
*1487 FILLER_0_6_77
*1488 FILLER_0_6_83
*1489 FILLER_0_6_85
*1490 FILLER_0_6_97
*1491 FILLER_0_7_105
*1492 FILLER_0_7_111
*1493 FILLER_0_7_113
*1494 FILLER_0_7_125
*1495 FILLER_0_7_137
*1496 FILLER_0_7_149
*1497 FILLER_0_7_15
*1498 FILLER_0_7_161
*1499 FILLER_0_7_167
*1500 FILLER_0_7_169
*1501 FILLER_0_7_181
*1502 FILLER_0_7_193