*SPEF "ieee 1481-1999"
*DESIGN "tt_um_wokwi_375174630101280769"
*DATE "11:11:11 Fri 11 11, 1111"
*VENDOR "OpenRCX"
*PROGRAM "Parallel Extraction"
*VERSION "1.0"
*DESIGN_FLOW "NAME_SCOPE LOCAL" "PIN_CAP NONE"
*DIVIDER /
*DELIMITER :
*BUS_DELIMITER []
*T_UNIT 1 NS
*C_UNIT 1 PF
*R_UNIT 1 OHM
*L_UNIT 1 HENRY

*NAME_MAP
*3 clk
*4 ena
*5 rst_n
*6 ui_in[0]
*7 ui_in[1]
*8 ui_in[2]
*9 ui_in[3]
*10 ui_in[4]
*11 ui_in[5]
*12 ui_in[6]
*13 ui_in[7]
*14 uio_in[0]
*15 uio_in[1]
*16 uio_in[2]
*17 uio_in[3]
*18 uio_in[4]
*19 uio_in[5]
*20 uio_in[6]
*21 uio_in[7]
*22 net9
*23 net10
*24 net11
*25 net12
*26 net13
*27 net14
*28 net15
*29 net16
*30 net17
*31 net18
*32 net19
*33 net20
*34 net21
*35 net22
*36 net23
*37 net24
*38 uo_out[0]
*39 uo_out[1]
*40 uo_out[2]
*41 uo_out[3]
*42 uo_out[4]
*43 net25
*44 net26
*45 net27
*46 _00_
*47 _01_
*48 _02_
*49 _03_
*50 _04_
*51 _05_
*52 _06_
*53 _07_
*54 _08_
*55 _09_
*56 _10_
*57 _11_
*58 _12_
*59 _13_
*60 _14_
*61 _15_
*62 _16_
*63 net1
*64 net2
*65 net3
*66 net4
*67 net5
*68 net6
*69 net7
*70 net8
*71 or8\.out
*72 xor2\.out
*73 xor4\.out
*74 xor6\.out
*75 xor8\.out
*76 FILLER_0_0_109
*77 FILLER_0_0_113
*78 FILLER_0_0_125
*79 FILLER_0_0_137
*80 FILLER_0_0_141
*81 FILLER_0_0_15
*82 FILLER_0_0_153
*83 FILLER_0_0_165
*84 FILLER_0_0_169
*85 FILLER_0_0_181
*86 FILLER_0_0_193
*87 FILLER_0_0_197
*88 FILLER_0_0_209
*89 FILLER_0_0_221
*90 FILLER_0_0_225
*91 FILLER_0_0_237
*92 FILLER_0_0_249
*93 FILLER_0_0_253
*94 FILLER_0_0_265
*95 FILLER_0_0_27
*96 FILLER_0_0_277
*97 FILLER_0_0_281
*98 FILLER_0_0_29
*99 FILLER_0_0_293
*100 FILLER_0_0_3
*101 FILLER_0_0_305
*102 FILLER_0_0_309
*103 FILLER_0_0_321
*104 FILLER_0_0_333
*105 FILLER_0_0_337
*106 FILLER_0_0_349
*107 FILLER_0_0_41
*108 FILLER_0_0_53
*109 FILLER_0_0_57
*110 FILLER_0_0_69
*111 FILLER_0_0_81
*112 FILLER_0_0_85
*113 FILLER_0_0_97
*114 FILLER_0_10_109
*115 FILLER_0_10_121
*116 FILLER_0_10_133
*117 FILLER_0_10_139
*118 FILLER_0_10_141
*119 FILLER_0_10_15
*120 FILLER_0_10_153
*121 FILLER_0_10_165
*122 FILLER_0_10_177
*123 FILLER_0_10_189
*124 FILLER_0_10_195
*125 FILLER_0_10_197
*126 FILLER_0_10_209
*127 FILLER_0_10_221
*128 FILLER_0_10_233
*129 FILLER_0_10_245
*130 FILLER_0_10_251
*131 FILLER_0_10_253
*132 FILLER_0_10_265
*133 FILLER_0_10_27
*134 FILLER_0_10_277
*135 FILLER_0_10_289
*136 FILLER_0_10_29
*137 FILLER_0_10_3
*138 FILLER_0_10_301
*139 FILLER_0_10_307
*140 FILLER_0_10_309
*141 FILLER_0_10_321
*142 FILLER_0_10_333
*143 FILLER_0_10_345
*144 FILLER_0_10_41
*145 FILLER_0_10_53
*146 FILLER_0_10_65
*147 FILLER_0_10_77
*148 FILLER_0_10_83
*149 FILLER_0_10_85
*150 FILLER_0_10_97
*151 FILLER_0_11_105
*152 FILLER_0_11_111
*153 FILLER_0_11_113
*154 FILLER_0_11_125
*155 FILLER_0_11_137
*156 FILLER_0_11_149
*157 FILLER_0_11_15
*158 FILLER_0_11_161
*159 FILLER_0_11_167
*160 FILLER_0_11_169
*161 FILLER_0_11_181
*162 FILLER_0_11_193
*163 FILLER_0_11_205
*164 FILLER_0_11_217
*165 FILLER_0_11_223
*166 FILLER_0_11_225
*167 FILLER_0_11_237
*168 FILLER_0_11_249
*169 FILLER_0_11_261
*170 FILLER_0_11_27
*171 FILLER_0_11_273
*172 FILLER_0_11_279
*173 FILLER_0_11_281
*174 FILLER_0_11_293
*175 FILLER_0_11_3
*176 FILLER_0_11_305
*177 FILLER_0_11_317
*178 FILLER_0_11_329
*179 FILLER_0_11_335
*180 FILLER_0_11_337
*181 FILLER_0_11_349
*182 FILLER_0_11_39
*183 FILLER_0_11_51
*184 FILLER_0_11_55
*185 FILLER_0_11_57
*186 FILLER_0_11_69
*187 FILLER_0_11_81
*188 FILLER_0_11_93
*189 FILLER_0_12_109
*190 FILLER_0_12_121
*191 FILLER_0_12_133
*192 FILLER_0_12_139
*193 FILLER_0_12_141
*194 FILLER_0_12_15
*195 FILLER_0_12_153
*196 FILLER_0_12_165
*197 FILLER_0_12_177
*198 FILLER_0_12_189
*199 FILLER_0_12_195
*200 FILLER_0_12_197
*201 FILLER_0_12_209
*202 FILLER_0_12_221
*203 FILLER_0_12_233
*204 FILLER_0_12_245
*205 FILLER_0_12_251
*206 FILLER_0_12_253
*207 FILLER_0_12_265
*208 FILLER_0_12_27
*209 FILLER_0_12_277
*210 FILLER_0_12_289
*211 FILLER_0_12_29
*212 FILLER_0_12_3
*213 FILLER_0_12_301
*214 FILLER_0_12_307
*215 FILLER_0_12_309
*216 FILLER_0_12_321
*217 FILLER_0_12_333
*218 FILLER_0_12_345
*219 FILLER_0_12_41
*220 FILLER_0_12_53
*221 FILLER_0_12_65
*222 FILLER_0_12_77
*223 FILLER_0_12_83
*224 FILLER_0_12_85
*225 FILLER_0_12_97
*226 FILLER_0_13_105
*227 FILLER_0_13_111
*228 FILLER_0_13_113
*229 FILLER_0_13_125
*230 FILLER_0_13_137
*231 FILLER_0_13_149
*232 FILLER_0_13_15
*233 FILLER_0_13_161
*234 FILLER_0_13_167
*235 FILLER_0_13_169
*236 FILLER_0_13_181
*237 FILLER_0_13_193
*238 FILLER_0_13_205
*239 FILLER_0_13_217
*240 FILLER_0_13_223
*241 FILLER_0_13_225
*242 FILLER_0_13_237
*243 FILLER_0_13_249
*244 FILLER_0_13_261
*245 FILLER_0_13_27
*246 FILLER_0_13_273
*247 FILLER_0_13_279
*248 FILLER_0_13_281
*249 FILLER_0_13_293
*250 FILLER_0_13_3
*251 FILLER_0_13_305
*252 FILLER_0_13_317
*253 FILLER_0_13_329
*254 FILLER_0_13_335
*255 FILLER_0_13_337
*256 FILLER_0_13_349
*257 FILLER_0_13_39
*258 FILLER_0_13_51
*259 FILLER_0_13_55
*260 FILLER_0_13_57
*261 FILLER_0_13_69
*262 FILLER_0_13_81
*263 FILLER_0_13_93
*264 FILLER_0_14_109
*265 FILLER_0_14_121
*266 FILLER_0_14_133
*267 FILLER_0_14_139
*268 FILLER_0_14_141
*269 FILLER_0_14_15
*270 FILLER_0_14_153
*271 FILLER_0_14_165
*272 FILLER_0_14_177
*273 FILLER_0_14_189
*274 FILLER_0_14_195
*275 FILLER_0_14_197
*276 FILLER_0_14_209
*277 FILLER_0_14_221
*278 FILLER_0_14_233
*279 FILLER_0_14_245
*280 FILLER_0_14_251
*281 FILLER_0_14_253
*282 FILLER_0_14_265
*283 FILLER_0_14_27
*284 FILLER_0_14_277
*285 FILLER_0_14_289
*286 FILLER_0_14_29
*287 FILLER_0_14_3
*288 FILLER_0_14_301
*289 FILLER_0_14_307
*290 FILLER_0_14_309
*291 FILLER_0_14_321
*292 FILLER_0_14_333
*293 FILLER_0_14_345
*294 FILLER_0_14_41
*295 FILLER_0_14_53
*296 FILLER_0_14_65
*297 FILLER_0_14_77
*298 FILLER_0_14_83
*299 FILLER_0_14_85
*300 FILLER_0_14_97
*301 FILLER_0_15_105
*302 FILLER_0_15_111
*303 FILLER_0_15_113
*304 FILLER_0_15_125
*305 FILLER_0_15_137
*306 FILLER_0_15_149
*307 FILLER_0_15_15
*308 FILLER_0_15_161
*309 FILLER_0_15_167
*310 FILLER_0_15_169
*311 FILLER_0_15_181
*312 FILLER_0_15_193
*313 FILLER_0_15_205
*314 FILLER_0_15_217
*315 FILLER_0_15_223
*316 FILLER_0_15_225
*317 FILLER_0_15_237
*318 FILLER_0_15_249
*319 FILLER_0_15_261
*320 FILLER_0_15_27
*321 FILLER_0_15_273
*322 FILLER_0_15_279
*323 FILLER_0_15_281
*324 FILLER_0_15_293
*325 FILLER_0_15_3
*326 FILLER_0_15_305
*327 FILLER_0_15_317
*328 FILLER_0_15_329
*329 FILLER_0_15_335
*330 FILLER_0_15_337
*331 FILLER_0_15_349
*332 FILLER_0_15_39
*333 FILLER_0_15_51
*334 FILLER_0_15_55
*335 FILLER_0_15_57
*336 FILLER_0_15_69
*337 FILLER_0_15_81
*338 FILLER_0_15_93
*339 FILLER_0_16_109
*340 FILLER_0_16_121
*341 FILLER_0_16_133
*342 FILLER_0_16_139
*343 FILLER_0_16_141
*344 FILLER_0_16_15
*345 FILLER_0_16_153
*346 FILLER_0_16_165
*347 FILLER_0_16_177
*348 FILLER_0_16_189
*349 FILLER_0_16_195
*350 FILLER_0_16_197
*351 FILLER_0_16_209
*352 FILLER_0_16_221
*353 FILLER_0_16_233
*354 FILLER_0_16_245
*355 FILLER_0_16_251
*356 FILLER_0_16_253
*357 FILLER_0_16_265
*358 FILLER_0_16_27
*359 FILLER_0_16_277
*360 FILLER_0_16_289
*361 FILLER_0_16_29
*362 FILLER_0_16_3
*363 FILLER_0_16_301
*364 FILLER_0_16_307
*365 FILLER_0_16_309
*366 FILLER_0_16_321
*367 FILLER_0_16_333
*368 FILLER_0_16_345
*369 FILLER_0_16_41
*370 FILLER_0_16_53
*371 FILLER_0_16_65
*372 FILLER_0_16_77
*373 FILLER_0_16_83
*374 FILLER_0_16_85
*375 FILLER_0_16_97
*376 FILLER_0_17_105
*377 FILLER_0_17_111
*378 FILLER_0_17_113
*379 FILLER_0_17_125
*380 FILLER_0_17_137
*381 FILLER_0_17_149
*382 FILLER_0_17_15
*383 FILLER_0_17_161
*384 FILLER_0_17_167
*385 FILLER_0_17_169
*386 FILLER_0_17_181
*387 FILLER_0_17_193
*388 FILLER_0_17_205
*389 FILLER_0_17_217
*390 FILLER_0_17_223
*391 FILLER_0_17_225
*392 FILLER_0_17_237
*393 FILLER_0_17_249
*394 FILLER_0_17_261
*395 FILLER_0_17_27
*396 FILLER_0_17_273
*397 FILLER_0_17_279
*398 FILLER_0_17_281
*399 FILLER_0_17_293
*400 FILLER_0_17_3
*401 FILLER_0_17_305
*402 FILLER_0_17_317
*403 FILLER_0_17_329
*404 FILLER_0_17_335
*405 FILLER_0_17_337
*406 FILLER_0_17_349
*407 FILLER_0_17_39
*408 FILLER_0_17_51
*409 FILLER_0_17_55
*410 FILLER_0_17_57
*411 FILLER_0_17_69
*412 FILLER_0_17_81
*413 FILLER_0_17_93
*414 FILLER_0_18_109
*415 FILLER_0_18_121
*416 FILLER_0_18_133
*417 FILLER_0_18_139
*418 FILLER_0_18_141
*419 FILLER_0_18_15
*420 FILLER_0_18_153
*421 FILLER_0_18_165
*422 FILLER_0_18_177
*423 FILLER_0_18_189
*424 FILLER_0_18_195
*425 FILLER_0_18_197
*426 FILLER_0_18_209
*427 FILLER_0_18_221
*428 FILLER_0_18_233
*429 FILLER_0_18_245
*430 FILLER_0_18_251
*431 FILLER_0_18_253
*432 FILLER_0_18_265
*433 FILLER_0_18_27
*434 FILLER_0_18_277
*435 FILLER_0_18_289
*436 FILLER_0_18_29
*437 FILLER_0_18_3
*438 FILLER_0_18_301
*439 FILLER_0_18_307
*440 FILLER_0_18_309
*441 FILLER_0_18_321
*442 FILLER_0_18_333
*443 FILLER_0_18_345
*444 FILLER_0_18_41
*445 FILLER_0_18_53
*446 FILLER_0_18_65
*447 FILLER_0_18_77
*448 FILLER_0_18_83
*449 FILLER_0_18_85
*450 FILLER_0_18_97
*451 FILLER_0_19_105
*452 FILLER_0_19_111
*453 FILLER_0_19_113
*454 FILLER_0_19_125
*455 FILLER_0_19_137
*456 FILLER_0_19_149
*457 FILLER_0_19_15
*458 FILLER_0_19_161
*459 FILLER_0_19_167
*460 FILLER_0_19_169
*461 FILLER_0_19_181
*462 FILLER_0_19_193
*463 FILLER_0_19_205
*464 FILLER_0_19_217
*465 FILLER_0_19_223
*466 FILLER_0_19_225
*467 FILLER_0_19_237
*468 FILLER_0_19_249
*469 FILLER_0_19_261
*470 FILLER_0_19_27
*471 FILLER_0_19_273
*472 FILLER_0_19_279
*473 FILLER_0_19_281
*474 FILLER_0_19_293
*475 FILLER_0_19_3
*476 FILLER_0_19_305
*477 FILLER_0_19_317
*478 FILLER_0_19_329
*479 FILLER_0_19_335
*480 FILLER_0_19_337
*481 FILLER_0_19_349
*482 FILLER_0_19_39
*483 FILLER_0_19_51
*484 FILLER_0_19_55
*485 FILLER_0_19_57
*486 FILLER_0_19_69
*487 FILLER_0_19_81
*488 FILLER_0_19_93
*489 FILLER_0_1_105
*490 FILLER_0_1_111
*491 FILLER_0_1_113
*492 FILLER_0_1_125
*493 FILLER_0_1_137
*494 FILLER_0_1_149
*495 FILLER_0_1_15
*496 FILLER_0_1_161
*497 FILLER_0_1_167
*498 FILLER_0_1_169
*499 FILLER_0_1_181
*500 FILLER_0_1_193
*501 FILLER_0_1_205
*502 FILLER_0_1_217
*503 FILLER_0_1_223
*504 FILLER_0_1_225
*505 FILLER_0_1_237
*506 FILLER_0_1_249
*507 FILLER_0_1_261
*508 FILLER_0_1_27
*509 FILLER_0_1_273
*510 FILLER_0_1_279
*511 FILLER_0_1_281
*512 FILLER_0_1_293
*513 FILLER_0_1_3
*514 FILLER_0_1_305
*515 FILLER_0_1_317
*516 FILLER_0_1_329
*517 FILLER_0_1_335
*518 FILLER_0_1_337
*519 FILLER_0_1_349
*520 FILLER_0_1_39
*521 FILLER_0_1_51
*522 FILLER_0_1_55
*523 FILLER_0_1_57
*524 FILLER_0_1_69
*525 FILLER_0_1_81
*526 FILLER_0_1_93
*527 FILLER_0_20_109
*528 FILLER_0_20_121
*529 FILLER_0_20_133
*530 FILLER_0_20_139
*531 FILLER_0_20_141
*532 FILLER_0_20_15
*533 FILLER_0_20_153
*534 FILLER_0_20_165
*535 FILLER_0_20_177
*536 FILLER_0_20_189
*537 FILLER_0_20_195
*538 FILLER_0_20_197
*539 FILLER_0_20_209
*540 FILLER_0_20_221
*541 FILLER_0_20_233
*542 FILLER_0_20_245
*543 FILLER_0_20_251
*544 FILLER_0_20_253
*545 FILLER_0_20_265
*546 FILLER_0_20_27
*547 FILLER_0_20_277
*548 FILLER_0_20_289
*549 FILLER_0_20_29
*550 FILLER_0_20_3
*551 FILLER_0_20_301
*552 FILLER_0_20_307
*553 FILLER_0_20_309
*554 FILLER_0_20_321
*555 FILLER_0_20_333
*556 FILLER_0_20_345
*557 FILLER_0_20_41
*558 FILLER_0_20_53
*559 FILLER_0_20_65
*560 FILLER_0_20_77
*561 FILLER_0_20_83
*562 FILLER_0_20_85
*563 FILLER_0_20_97
*564 FILLER_0_21_105
*565 FILLER_0_21_111
*566 FILLER_0_21_113
*567 FILLER_0_21_125
*568 FILLER_0_21_137
*569 FILLER_0_21_149
*570 FILLER_0_21_15
*571 FILLER_0_21_161
*572 FILLER_0_21_167
*573 FILLER_0_21_169
*574 FILLER_0_21_181
*575 FILLER_0_21_193
*576 FILLER_0_21_205
*577 FILLER_0_21_217
*578 FILLER_0_21_223
*579 FILLER_0_21_225
*580 FILLER_0_21_237
*581 FILLER_0_21_249
*582 FILLER_0_21_261
*583 FILLER_0_21_27
*584 FILLER_0_21_273
*585 FILLER_0_21_279
*586 FILLER_0_21_281
*587 FILLER_0_21_293
*588 FILLER_0_21_3
*589 FILLER_0_21_305
*590 FILLER_0_21_317
*591 FILLER_0_21_329
*592 FILLER_0_21_335
*593 FILLER_0_21_337
*594 FILLER_0_21_349
*595 FILLER_0_21_39
*596 FILLER_0_21_51
*597 FILLER_0_21_55
*598 FILLER_0_21_57
*599 FILLER_0_21_69
*600 FILLER_0_21_81
*601 FILLER_0_21_93
*602 FILLER_0_22_109
*603 FILLER_0_22_121
*604 FILLER_0_22_133
*605 FILLER_0_22_139
*606 FILLER_0_22_141
*607 FILLER_0_22_15
*608 FILLER_0_22_153
*609 FILLER_0_22_165
*610 FILLER_0_22_177
*611 FILLER_0_22_189
*612 FILLER_0_22_195
*613 FILLER_0_22_197
*614 FILLER_0_22_209
*615 FILLER_0_22_221
*616 FILLER_0_22_233
*617 FILLER_0_22_245
*618 FILLER_0_22_251
*619 FILLER_0_22_253
*620 FILLER_0_22_265
*621 FILLER_0_22_27
*622 FILLER_0_22_277
*623 FILLER_0_22_289
*624 FILLER_0_22_29
*625 FILLER_0_22_3
*626 FILLER_0_22_301
*627 FILLER_0_22_307
*628 FILLER_0_22_309
*629 FILLER_0_22_321
*630 FILLER_0_22_333
*631 FILLER_0_22_345
*632 FILLER_0_22_41
*633 FILLER_0_22_53
*634 FILLER_0_22_65
*635 FILLER_0_22_77
*636 FILLER_0_22_83
*637 FILLER_0_22_85
*638 FILLER_0_22_97
*639 FILLER_0_23_105
*640 FILLER_0_23_111
*641 FILLER_0_23_113
*642 FILLER_0_23_125
*643 FILLER_0_23_137
*644 FILLER_0_23_149
*645 FILLER_0_23_15
*646 FILLER_0_23_161
*647 FILLER_0_23_167
*648 FILLER_0_23_169
*649 FILLER_0_23_181
*650 FILLER_0_23_193
*651 FILLER_0_23_205
*652 FILLER_0_23_217
*653 FILLER_0_23_223
*654 FILLER_0_23_225
*655 FILLER_0_23_237
*656 FILLER_0_23_249
*657 FILLER_0_23_261
*658 FILLER_0_23_27
*659 FILLER_0_23_273
*660 FILLER_0_23_279
*661 FILLER_0_23_281
*662 FILLER_0_23_293
*663 FILLER_0_23_3
*664 FILLER_0_23_305
*665 FILLER_0_23_317
*666 FILLER_0_23_329
*667 FILLER_0_23_335
*668 FILLER_0_23_337
*669 FILLER_0_23_349
*670 FILLER_0_23_39
*671 FILLER_0_23_51
*672 FILLER_0_23_55
*673 FILLER_0_23_57
*674 FILLER_0_23_69
*675 FILLER_0_23_81
*676 FILLER_0_23_93
*677 FILLER_0_24_109
*678 FILLER_0_24_121
*679 FILLER_0_24_133
*680 FILLER_0_24_139
*681 FILLER_0_24_141
*682 FILLER_0_24_15
*683 FILLER_0_24_153
*684 FILLER_0_24_165
*685 FILLER_0_24_177
*686 FILLER_0_24_189
*687 FILLER_0_24_195
*688 FILLER_0_24_197
*689 FILLER_0_24_209
*690 FILLER_0_24_221
*691 FILLER_0_24_233
*692 FILLER_0_24_245
*693 FILLER_0_24_251
*694 FILLER_0_24_253
*695 FILLER_0_24_265
*696 FILLER_0_24_27
*697 FILLER_0_24_277
*698 FILLER_0_24_289
*699 FILLER_0_24_29
*700 FILLER_0_24_3
*701 FILLER_0_24_301
*702 FILLER_0_24_307
*703 FILLER_0_24_309
*704 FILLER_0_24_321
*705 FILLER_0_24_333
*706 FILLER_0_24_345
*707 FILLER_0_24_41
*708 FILLER_0_24_53
*709 FILLER_0_24_65
*710 FILLER_0_24_77
*711 FILLER_0_24_83
*712 FILLER_0_24_85
*713 FILLER_0_24_97
*714 FILLER_0_25_105
*715 FILLER_0_25_111
*716 FILLER_0_25_113
*717 FILLER_0_25_125
*718 FILLER_0_25_137
*719 FILLER_0_25_149
*720 FILLER_0_25_15
*721 FILLER_0_25_161
*722 FILLER_0_25_167
*723 FILLER_0_25_169
*724 FILLER_0_25_181
*725 FILLER_0_25_193
*726 FILLER_0_25_205
*727 FILLER_0_25_217
*728 FILLER_0_25_223
*729 FILLER_0_25_225
*730 FILLER_0_25_237
*731 FILLER_0_25_249
*732 FILLER_0_25_261
*733 FILLER_0_25_27
*734 FILLER_0_25_273
*735 FILLER_0_25_279
*736 FILLER_0_25_281
*737 FILLER_0_25_293
*738 FILLER_0_25_3
*739 FILLER_0_25_305
*740 FILLER_0_25_317
*741 FILLER_0_25_329
*742 FILLER_0_25_335
*743 FILLER_0_25_337
*744 FILLER_0_25_349
*745 FILLER_0_25_39
*746 FILLER_0_25_51
*747 FILLER_0_25_55
*748 FILLER_0_25_57
*749 FILLER_0_25_69
*750 FILLER_0_25_81
*751 FILLER_0_25_93
*752 FILLER_0_26_109
*753 FILLER_0_26_121
*754 FILLER_0_26_133
*755 FILLER_0_26_139
*756 FILLER_0_26_141
*757 FILLER_0_26_15
*758 FILLER_0_26_153
*759 FILLER_0_26_165
*760 FILLER_0_26_177
*761 FILLER_0_26_189
*762 FILLER_0_26_195
*763 FILLER_0_26_197
*764 FILLER_0_26_209
*765 FILLER_0_26_221
*766 FILLER_0_26_233
*767 FILLER_0_26_245
*768 FILLER_0_26_251
*769 FILLER_0_26_253
*770 FILLER_0_26_265
*771 FILLER_0_26_27
*772 FILLER_0_26_277
*773 FILLER_0_26_289
*774 FILLER_0_26_29
*775 FILLER_0_26_3
*776 FILLER_0_26_301
*777 FILLER_0_26_307
*778 FILLER_0_26_309
*779 FILLER_0_26_321
*780 FILLER_0_26_333
*781 FILLER_0_26_345
*782 FILLER_0_26_41
*783 FILLER_0_26_53
*784 FILLER_0_26_65
*785 FILLER_0_26_77
*786 FILLER_0_26_83
*787 FILLER_0_26_85
*788 FILLER_0_26_97
*789 FILLER_0_27_105
*790 FILLER_0_27_111
*791 FILLER_0_27_113
*792 FILLER_0_27_125
*793 FILLER_0_27_137
*794 FILLER_0_27_149
*795 FILLER_0_27_15
*796 FILLER_0_27_161
*797 FILLER_0_27_167
*798 FILLER_0_27_169
*799 FILLER_0_27_181
*800 FILLER_0_27_193
*801 FILLER_0_27_205
*802 FILLER_0_27_217
*803 FILLER_0_27_223
*804 FILLER_0_27_225
*805 FILLER_0_27_237
*806 FILLER_0_27_249
*807 FILLER_0_27_261
*808 FILLER_0_27_27
*809 FILLER_0_27_273
*810 FILLER_0_27_279
*811 FILLER_0_27_281
*812 FILLER_0_27_293
*813 FILLER_0_27_3
*814 FILLER_0_27_305
*815 FILLER_0_27_317
*816 FILLER_0_27_329
*817 FILLER_0_27_335
*818 FILLER_0_27_337
*819 FILLER_0_27_349
*820 FILLER_0_27_39
*821 FILLER_0_27_51
*822 FILLER_0_27_55
*823 FILLER_0_27_57
*824 FILLER_0_27_69
*825 FILLER_0_27_81
*826 FILLER_0_27_93
*827 FILLER_0_28_109
*828 FILLER_0_28_121
*829 FILLER_0_28_133
*830 FILLER_0_28_139
*831 FILLER_0_28_141
*832 FILLER_0_28_15
*833 FILLER_0_28_153
*834 FILLER_0_28_165
*835 FILLER_0_28_177
*836 FILLER_0_28_189
*837 FILLER_0_28_195
*838 FILLER_0_28_197
*839 FILLER_0_28_209
*840 FILLER_0_28_221
*841 FILLER_0_28_233
*842 FILLER_0_28_245
*843 FILLER_0_28_251
*844 FILLER_0_28_253
*845 FILLER_0_28_265
*846 FILLER_0_28_27
*847 FILLER_0_28_277
*848 FILLER_0_28_289
*849 FILLER_0_28_29
*850 FILLER_0_28_3
*851 FILLER_0_28_301
*852 FILLER_0_28_307
*853 FILLER_0_28_309
*854 FILLER_0_28_321
*855 FILLER_0_28_333
*856 FILLER_0_28_345
*857 FILLER_0_28_41
*858 FILLER_0_28_53
*859 FILLER_0_28_65
*860 FILLER_0_28_77
*861 FILLER_0_28_83
*862 FILLER_0_28_85
*863 FILLER_0_28_97
*864 FILLER_0_29_105
*865 FILLER_0_29_111
*866 FILLER_0_29_113
*867 FILLER_0_29_125
*868 FILLER_0_29_137
*869 FILLER_0_29_149
*870 FILLER_0_29_15
*871 FILLER_0_29_161
*872 FILLER_0_29_167
*873 FILLER_0_29_169
*874 FILLER_0_29_181
*875 FILLER_0_29_193
*876 FILLER_0_29_205
*877 FILLER_0_29_217
*878 FILLER_0_29_223
*879 FILLER_0_29_225
*880 FILLER_0_29_237
*881 FILLER_0_29_249
*882 FILLER_0_29_261
*883 FILLER_0_29_27
*884 FILLER_0_29_273
*885 FILLER_0_29_279
*886 FILLER_0_29_281
*887 FILLER_0_29_293
*888 FILLER_0_29_3
*889 FILLER_0_29_305
*890 FILLER_0_29_317
*891 FILLER_0_29_329
*892 FILLER_0_29_335
*893 FILLER_0_29_337
*894 FILLER_0_29_349
*895 FILLER_0_29_39
*896 FILLER_0_29_51
*897 FILLER_0_29_55
*898 FILLER_0_29_57
*899 FILLER_0_29_69
*900 FILLER_0_29_81
*901 FILLER_0_29_93
*902 FILLER_0_2_109
*903 FILLER_0_2_121
*904 FILLER_0_2_133
*905 FILLER_0_2_139
*906 FILLER_0_2_141
*907 FILLER_0_2_15
*908 FILLER_0_2_153
*909 FILLER_0_2_165
*910 FILLER_0_2_177
*911 FILLER_0_2_189
*912 FILLER_0_2_195
*913 FILLER_0_2_197
*914 FILLER_0_2_209
*915 FILLER_0_2_221
*916 FILLER_0_2_233
*917 FILLER_0_2_245
*918 FILLER_0_2_251
*919 FILLER_0_2_253
*920 FILLER_0_2_265
*921 FILLER_0_2_27
*922 FILLER_0_2_277
*923 FILLER_0_2_289
*924 FILLER_0_2_29
*925 FILLER_0_2_3
*926 FILLER_0_2_301
*927 FILLER_0_2_307
*928 FILLER_0_2_309
*929 FILLER_0_2_321
*930 FILLER_0_2_333
*931 FILLER_0_2_345
*932 FILLER_0_2_41
*933 FILLER_0_2_53
*934 FILLER_0_2_65
*935 FILLER_0_2_77
*936 FILLER_0_2_83
*937 FILLER_0_2_85
*938 FILLER_0_2_97
*939 FILLER_0_30_109
*940 FILLER_0_30_121
*941 FILLER_0_30_133
*942 FILLER_0_30_139
*943 FILLER_0_30_141
*944 FILLER_0_30_15
*945 FILLER_0_30_153
*946 FILLER_0_30_165
*947 FILLER_0_30_177
*948 FILLER_0_30_189
*949 FILLER_0_30_195
*950 FILLER_0_30_197
*951 FILLER_0_30_209
*952 FILLER_0_30_221
*953 FILLER_0_30_233
*954 FILLER_0_30_245
*955 FILLER_0_30_251
*956 FILLER_0_30_253
*957 FILLER_0_30_265
*958 FILLER_0_30_27
*959 FILLER_0_30_277
*960 FILLER_0_30_289
*961 FILLER_0_30_29
*962 FILLER_0_30_3
*963 FILLER_0_30_301
*964 FILLER_0_30_307
*965 FILLER_0_30_309
*966 FILLER_0_30_321
*967 FILLER_0_30_333
*968 FILLER_0_30_345
*969 FILLER_0_30_41
*970 FILLER_0_30_53
*971 FILLER_0_30_65
*972 FILLER_0_30_77
*973 FILLER_0_30_83
*974 FILLER_0_30_85
*975 FILLER_0_30_97
*976 FILLER_0_31_105
*977 FILLER_0_31_111
*978 FILLER_0_31_113
*979 FILLER_0_31_125
*980 FILLER_0_31_137
*981 FILLER_0_31_149
*982 FILLER_0_31_15
*983 FILLER_0_31_161
*984 FILLER_0_31_167
*985 FILLER_0_31_169
*986 FILLER_0_31_181
*987 FILLER_0_31_193
*988 FILLER_0_31_205
*989 FILLER_0_31_217
*990 FILLER_0_31_223
*991 FILLER_0_31_225
*992 FILLER_0_31_237
*993 FILLER_0_31_249
*994 FILLER_0_31_261
*995 FILLER_0_31_27
*996 FILLER_0_31_273
*997 FILLER_0_31_279
*998 FILLER_0_31_281
*999 FILLER_0_31_293
*1000 FILLER_0_31_3
*1001 FILLER_0_31_305
*1002 FILLER_0_31_317
*1003 FILLER_0_31_329
*1004 FILLER_0_31_335
*1005 FILLER_0_31_337
*1006 FILLER_0_31_349
*1007 FILLER_0_31_39
*1008 FILLER_0_31_51
*1009 FILLER_0_31_55
*1010 FILLER_0_31_57
*1011 FILLER_0_31_69
*1012 FILLER_0_31_81
*1013 FILLER_0_31_93
*1014 FILLER_0_32_109
*1015 FILLER_0_32_121
*1016 FILLER_0_32_133
*1017 FILLER_0_32_139
*1018 FILLER_0_32_141
*1019 FILLER_0_32_15
*1020 FILLER_0_32_153
*1021 FILLER_0_32_165
*1022 FILLER_0_32_177
*1023 FILLER_0_32_189
*1024 FILLER_0_32_195
*1025 FILLER_0_32_197
*1026 FILLER_0_32_209
*1027 FILLER_0_32_221
*1028 FILLER_0_32_233
*1029 FILLER_0_32_245
*1030 FILLER_0_32_251
*1031 FILLER_0_32_253
*1032 FILLER_0_32_265
*1033 FILLER_0_32_27
*1034 FILLER_0_32_277
*1035 FILLER_0_32_289
*1036 FILLER_0_32_29
*1037 FILLER_0_32_3
*1038 FILLER_0_32_301
*1039 FILLER_0_32_307
*1040 FILLER_0_32_309
*1041 FILLER_0_32_321
*1042 FILLER_0_32_333
*1043 FILLER_0_32_345
*1044 FILLER_0_32_41
*1045 FILLER_0_32_53
*1046 FILLER_0_32_65
*1047 FILLER_0_32_77
*1048 FILLER_0_32_83
*1049 FILLER_0_32_85
*1050 FILLER_0_32_97
*1051 FILLER_0_33_105
*1052 FILLER_0_33_111
*1053 FILLER_0_33_113
*1054 FILLER_0_33_125
*1055 FILLER_0_33_137
*1056 FILLER_0_33_149
*1057 FILLER_0_33_15
*1058 FILLER_0_33_161
*1059 FILLER_0_33_167
*1060 FILLER_0_33_169
*1061 FILLER_0_33_181
*1062 FILLER_0_33_193
*1063 FILLER_0_33_205
*1064 FILLER_0_33_217
*1065 FILLER_0_33_223
*1066 FILLER_0_33_225
*1067 FILLER_0_33_237
*1068 FILLER_0_33_249
*1069 FILLER_0_33_261
*1070 FILLER_0_33_27
*1071 FILLER_0_33_273
*1072 FILLER_0_33_279
*1073 FILLER_0_33_281
*1074 FILLER_0_33_293
*1075 FILLER_0_33_3
*1076 FILLER_0_33_305
*1077 FILLER_0_33_317
*1078 FILLER_0_33_329
*1079 FILLER_0_33_335
*1080 FILLER_0_33_337
*1081 FILLER_0_33_349
*1082 FILLER_0_33_39
*1083 FILLER_0_33_51
*1084 FILLER_0_33_55
*1085 FILLER_0_33_57
*1086 FILLER_0_33_69
*1087 FILLER_0_33_81
*1088 FILLER_0_33_93
*1089 FILLER_0_34_109
*1090 FILLER_0_34_121
*1091 FILLER_0_34_133
*1092 FILLER_0_34_139
*1093 FILLER_0_34_141
*1094 FILLER_0_34_15
*1095 FILLER_0_34_153
*1096 FILLER_0_34_165
*1097 FILLER_0_34_177
*1098 FILLER_0_34_189
*1099 FILLER_0_34_195
*1100 FILLER_0_34_197
*1101 FILLER_0_34_209
*1102 FILLER_0_34_221
*1103 FILLER_0_34_233
*1104 FILLER_0_34_245
*1105 FILLER_0_34_251
*1106 FILLER_0_34_253
*1107 FILLER_0_34_265
*1108 FILLER_0_34_27
*1109 FILLER_0_34_277
*1110 FILLER_0_34_289
*1111 FILLER_0_34_29
*1112 FILLER_0_34_3
*1113 FILLER_0_34_301
*1114 FILLER_0_34_307
*1115 FILLER_0_34_309
*1116 FILLER_0_34_321
*1117 FILLER_0_34_333
*1118 FILLER_0_34_345
*1119 FILLER_0_34_41
*1120 FILLER_0_34_53
*1121 FILLER_0_34_65
*1122 FILLER_0_34_77
*1123 FILLER_0_34_83
*1124 FILLER_0_34_85
*1125 FILLER_0_34_97
*1126 FILLER_0_35_105
*1127 FILLER_0_35_111
*1128 FILLER_0_35_113
*1129 FILLER_0_35_125
*1130 FILLER_0_35_137
*1131 FILLER_0_35_149
*1132 FILLER_0_35_15
*1133 FILLER_0_35_161
*1134 FILLER_0_35_167
*1135 FILLER_0_35_169
*1136 FILLER_0_35_181
*1137 FILLER_0_35_193
*1138 FILLER_0_35_205
*1139 FILLER_0_35_217
*1140 FILLER_0_35_223
*1141 FILLER_0_35_225
*1142 FILLER_0_35_237
*1143 FILLER_0_35_249
*1144 FILLER_0_35_261
*1145 FILLER_0_35_27
*1146 FILLER_0_35_273
*1147 FILLER_0_35_279
*1148 FILLER_0_35_281
*1149 FILLER_0_35_293
*1150 FILLER_0_35_3
*1151 FILLER_0_35_305
*1152 FILLER_0_35_317
*1153 FILLER_0_35_329
*1154 FILLER_0_35_335
*1155 FILLER_0_35_337
*1156 FILLER_0_35_349
*1157 FILLER_0_35_39
*1158 FILLER_0_35_51
*1159 FILLER_0_35_55
*1160 FILLER_0_35_57
*1161 FILLER_0_35_69
*1162 FILLER_0_35_81
*1163 FILLER_0_35_93
*1164 FILLER_0_36_109
*1165 FILLER_0_36_121
*1166 FILLER_0_36_133
*1167 FILLER_0_36_139
*1168 FILLER_0_36_141
*1169 FILLER_0_36_15
*1170 FILLER_0_36_153
*1171 FILLER_0_36_165
*1172 FILLER_0_36_177
*1173 FILLER_0_36_189
*1174 FILLER_0_36_195
*1175 FILLER_0_36_197
*1176 FILLER_0_36_209
*1177 FILLER_0_36_221
*1178 FILLER_0_36_233
*1179 FILLER_0_36_245
*1180 FILLER_0_36_251
*1181 FILLER_0_36_253
*1182 FILLER_0_36_265
*1183 FILLER_0_36_27
*1184 FILLER_0_36_283
*1185 FILLER_0_36_29
*1186 FILLER_0_36_295
*1187 FILLER_0_36_3
*1188 FILLER_0_36_302
*1189 FILLER_0_36_309
*1190 FILLER_0_36_321
*1191 FILLER_0_36_333
*1192 FILLER_0_36_345
*1193 FILLER_0_36_41
*1194 FILLER_0_36_53
*1195 FILLER_0_36_65
*1196 FILLER_0_36_77
*1197 FILLER_0_36_83
*1198 FILLER_0_36_85
*1199 FILLER_0_36_97
*1200 FILLER_0_37_105
*1201 FILLER_0_37_111
*1202 FILLER_0_37_113
*1203 FILLER_0_37_125
*1204 FILLER_0_37_137
*1205 FILLER_0_37_149
*1206 FILLER_0_37_15
*1207 FILLER_0_37_161
*1208 FILLER_0_37_167
*1209 FILLER_0_37_169
*1210 FILLER_0_37_175
*1211 FILLER_0_37_179
*1212 FILLER_0_37_191
*1213 FILLER_0_37_203
*1214 FILLER_0_37_215
*1215 FILLER_0_37_223
*1216 FILLER_0_37_225
*1217 FILLER_0_37_238
*1218 FILLER_0_37_242
*1219 FILLER_0_37_262
*1220 FILLER_0_37_27
*1221 FILLER_0_37_278
*1222 FILLER_0_37_292
*1223 FILLER_0_37_3
*1224 FILLER_0_37_312
*1225 FILLER_0_37_316
*1226 FILLER_0_37_322
*1227 FILLER_0_37_334
*1228 FILLER_0_37_337
*1229 FILLER_0_37_349
*1230 FILLER_0_37_39
*1231 FILLER_0_37_51
*1232 FILLER_0_37_55
*1233 FILLER_0_37_57
*1234 FILLER_0_37_69
*1235 FILLER_0_37_81
*1236 FILLER_0_37_93
*1237 FILLER_0_38_102
*1238 FILLER_0_38_106
*1239 FILLER_0_38_110
*1240 FILLER_0_38_113
*1241 FILLER_0_38_118
*1242 FILLER_0_38_122
*1243 FILLER_0_38_126
*1244 FILLER_0_38_130
*1245 FILLER_0_38_134
*1246 FILLER_0_38_14
*1247 FILLER_0_38_144
*1248 FILLER_0_38_150
*1249 FILLER_0_38_154
*1250 FILLER_0_38_158
*1251 FILLER_0_38_169
*1252 FILLER_0_38_18
*1253 FILLER_0_38_180
*1254 FILLER_0_38_185
*1255 FILLER_0_38_192
*1256 FILLER_0_38_201
*1257 FILLER_0_38_213
*1258 FILLER_0_38_22
*1259 FILLER_0_38_221
*1260 FILLER_0_38_225
*1261 FILLER_0_38_237
*1262 FILLER_0_38_249
*1263 FILLER_0_38_253
*1264 FILLER_0_38_263
*1265 FILLER_0_38_270
*1266 FILLER_0_38_274
*1267 FILLER_0_38_278
*1268 FILLER_0_38_281
*1269 FILLER_0_38_286
*1270 FILLER_0_38_290
*1271 FILLER_0_38_294
*1272 FILLER_0_38_298
*1273 FILLER_0_38_3
*1274 FILLER_0_38_307
*1275 FILLER_0_38_316
*1276 FILLER_0_38_32
*1277 FILLER_0_38_331
*1278 FILLER_0_38_335
*1279 FILLER_0_38_337
*1280 FILLER_0_38_349
*1281 FILLER_0_38_38
*1282 FILLER_0_38_42
*1283 FILLER_0_38_46
*1284 FILLER_0_38_50
*1285 FILLER_0_38_54
*1286 FILLER_0_38_57
*1287 FILLER_0_38_62
*1288 FILLER_0_38_66
*1289 FILLER_0_38_70
*1290 FILLER_0_38_74
*1291 FILLER_0_38_78
*1292 FILLER_0_38_88
*1293 FILLER_0_38_94
*1294 FILLER_0_38_98
*1295 FILLER_0_3_105
*1296 FILLER_0_3_111
*1297 FILLER_0_3_113
*1298 FILLER_0_3_125
*1299 FILLER_0_3_137
*1300 FILLER_0_3_149
*1301 FILLER_0_3_15
*1302 FILLER_0_3_161
*1303 FILLER_0_3_167
*1304 FILLER_0_3_169
*1305 FILLER_0_3_181
*1306 FILLER_0_3_193
*1307 FILLER_0_3_205
*1308 FILLER_0_3_217
*1309 FILLER_0_3_223
*1310 FILLER_0_3_225
*1311 FILLER_0_3_237
*1312 FILLER_0_3_249
*1313 FILLER_0_3_261
*1314 FILLER_0_3_27
*1315 FILLER_0_3_273
*1316 FILLER_0_3_279
*1317 FILLER_0_3_281
*1318 FILLER_0_3_293
*1319 FILLER_0_3_3
*1320 FILLER_0_3_305
*1321 FILLER_0_3_317
*1322 FILLER_0_3_329
*1323 FILLER_0_3_335
*1324 FILLER_0_3_337
*1325 FILLER_0_3_349
*1326 FILLER_0_3_39
*1327 FILLER_0_3_51
*1328 FILLER_0_3_55
*1329 FILLER_0_3_57
*1330 FILLER_0_3_69
*1331 FILLER_0_3_81
*1332 FILLER_0_3_93
*1333 FILLER_0_4_109
*1334 FILLER_0_4_121
*1335 FILLER_0_4_133
*1336 FILLER_0_4_139
*1337 FILLER_0_4_141
*1338 FILLER_0_4_15
*1339 FILLER_0_4_153
*1340 FILLER_0_4_165
*1341 FILLER_0_4_177
*1342 FILLER_0_4_189
*1343 FILLER_0_4_195
*1344 FILLER_0_4_197
*1345 FILLER_0_4_209
*1346 FILLER_0_4_221
*1347 FILLER_0_4_233
*1348 FILLER_0_4_245
*1349 FILLER_0_4_251
*1350 FILLER_0_4_253
*1351 FILLER_0_4_265
*1352 FILLER_0_4_27
*1353 FILLER_0_4_277
*1354 FILLER_0_4_289
*1355 FILLER_0_4_29
*1356 FILLER_0_4_3
*1357 FILLER_0_4_301
*1358 FILLER_0_4_307
*1359 FILLER_0_4_309
*1360 FILLER_0_4_321
*1361 FILLER_0_4_333
*1362 FILLER_0_4_345
*1363 FILLER_0_4_41
*1364 FILLER_0_4_53
*1365 FILLER_0_4_65
*1366 FILLER_0_4_77
*1367 FILLER_0_4_83
*1368 FILLER_0_4_85
*1369 FILLER_0_4_97
*1370 FILLER_0_5_105
*1371 FILLER_0_5_111
*1372 FILLER_0_5_113
*1373 FILLER_0_5_125
*1374 FILLER_0_5_137
*1375 FILLER_0_5_149
*1376 FILLER_0_5_15
*1377 FILLER_0_5_161
*1378 FILLER_0_5_167
*1379 FILLER_0_5_169
*1380 FILLER_0_5_181
*1381 FILLER_0_5_193
*1382 FILLER_0_5_205
*1383 FILLER_0_5_217
*1384 FILLER_0_5_223
*1385 FILLER_0_5_225
*1386 FILLER_0_5_237
*1387 FILLER_0_5_249
*1388 FILLER_0_5_261
*1389 FILLER_0_5_27
*1390 FILLER_0_5_273
*1391 FILLER_0_5_279
*1392 FILLER_0_5_281
*1393 FILLER_0_5_293
*1394 FILLER_0_5_3
*1395 FILLER_0_5_305
*1396 FILLER_0_5_317
*1397 FILLER_0_5_329
*1398 FILLER_0_5_335
*1399 FILLER_0_5_337
*1400 FILLER_0_5_349
*1401 FILLER_0_5_39
*1402 FILLER_0_5_51
*1403 FILLER_0_5_55
*1404 FILLER_0_5_57
*1405 FILLER_0_5_69
*1406 FILLER_0_5_81
*1407 FILLER_0_5_93
*1408 FILLER_0_6_109
*1409 FILLER_0_6_121
*1410 FILLER_0_6_133
*1411 FILLER_0_6_139
*1412 FILLER_0_6_141
*1413 FILLER_0_6_15
*1414 FILLER_0_6_153
*1415 FILLER_0_6_165
*1416 FILLER_0_6_177
*1417 FILLER_0_6_189
*1418 FILLER_0_6_195
*1419 FILLER_0_6_197
*1420 FILLER_0_6_209
*1421 FILLER_0_6_221
*1422 FILLER_0_6_233
*1423 FILLER_0_6_245
*1424 FILLER_0_6_251
*1425 FILLER_0_6_253
*1426 FILLER_0_6_265
*1427 FILLER_0_6_27
*1428 FILLER_0_6_277
*1429 FILLER_0_6_289
*1430 FILLER_0_6_29
*1431 FILLER_0_6_3
*1432 FILLER_0_6_301
*1433 FILLER_0_6_307
*1434 FILLER_0_6_309
*1435 FILLER_0_6_321
*1436 FILLER_0_6_333
*1437 FILLER_0_6_345
*1438 FILLER_0_6_41
*1439 FILLER_0_6_53
*1440 FILLER_0_6_65
*1441 FILLER_0_6_77
*1442 FILLER_0_6_83
*1443 FILLER_0_6_85
*1444 FILLER_0_6_97
*1445 FILLER_0_7_105
*1446 FILLER_0_7_111
*1447 FILLER_0_7_113
*1448 FILLER_0_7_125
*1449 FILLER_0_7_137
*1450 FILLER_0_7_149
*1451 FILLER_0_7_15
*1452 FILLER_0_7_161
*1453 FILLER_0_7_167
*1454 FILLER_0_7_169
*1455 FILLER_0_7_181
*1456 FILLER_0_7_193
*1457 FILLER_0_7_205
*1458 FILLER_0_7_217
*1459 FILLER_0_7_223
*1460 FILLER_0_7_225
*1461 FILLER_0_7_237
*1462 FILLER_0_7_249
*1463 FILLER_0_7_261