*SPEF "ieee 1481-1999"
*DESIGN "tt_um_MichaelBell_nanoV"
*DATE "11:11:11 Fri 11 11, 1111"
*VENDOR "OpenRCX"
*PROGRAM "Parallel Extraction"
*VERSION "1.0"
*DESIGN_FLOW "NAME_SCOPE LOCAL" "PIN_CAP NONE"
*DIVIDER /
*DELIMITER :
*BUS_DELIMITER []
*T_UNIT 1 NS
*C_UNIT 1 PF
*R_UNIT 1 OHM
*L_UNIT 1 HENRY

*NAME_MAP
*3 clk
*4 ena
*5 rst_n
*6 ui_in[0]
*7 ui_in[1]
*8 ui_in[2]
*9 ui_in[3]
*10 ui_in[4]
*11 ui_in[5]
*12 ui_in[6]
*13 ui_in[7]
*14 uio_in[0]
*15 uio_in[1]
*16 uio_in[2]
*17 uio_in[3]
*18 uio_in[4]
*19 uio_in[5]
*20 uio_in[6]
*21 uio_in[7]
*22 uio_oe[0]
*23 uio_oe[1]
*24 uio_oe[2]
*25 net13
*26 net19
*27 net14
*28 net20
*29 net15
*30 uio_out[0]
*31 uio_out[1]
*32 uio_out[2]
*33 net16
*34 uio_out[4]
*35 net17
*36 uio_out[6]
*37 net18
*38 uo_out[0]
*39 uo_out[1]
*40 uo_out[2]
*41 uo_out[3]
*42 uo_out[4]
*43 uo_out[5]
*44 uo_out[6]
*45 uo_out[7]
*46 _0000_
*47 _0001_
*48 _0002_
*49 _0003_
*50 _0004_
*51 _0005_
*52 _0006_
*53 _0007_
*54 _0008_
*55 _0009_
*56 _0010_
*57 _0011_
*58 _0012_
*59 _0013_
*60 _0014_
*61 _0015_
*62 _0016_
*63 _0017_
*64 _0018_
*65 _0019_
*66 _0020_
*67 _0021_
*68 _0022_
*69 _0023_
*70 _0024_
*71 _0025_
*72 _0027_
*73 _0028_
*74 _0029_
*75 _0030_
*76 _0031_
*77 _0032_
*78 _0033_
*79 _0034_
*80 _0035_
*81 _0036_
*82 _0037_
*83 _0038_
*84 _0039_
*85 _0040_
*86 _0041_
*87 _0042_
*88 _0043_
*89 _0044_
*90 _0045_
*91 _0046_
*92 _0047_
*93 _0048_
*94 _0049_
*95 _0050_
*96 _0051_
*97 _0052_
*98 _0053_
*99 _0054_
*100 _0055_
*101 _0056_
*102 _0057_
*103 _0058_
*104 _0059_
*105 _0060_
*106 _0061_
*107 _0062_
*108 _0063_
*109 _0064_
*110 _0065_
*111 _0066_
*112 _0067_
*113 _0068_
*114 _0069_
*115 _0070_
*116 _0071_
*117 _0072_
*118 _0073_
*119 _0074_
*120 _0075_
*121 _0076_
*122 _0077_
*123 _0078_
*124 _0079_
*125 _0080_
*126 _0081_
*127 _0082_
*128 _0083_
*129 _0084_
*130 _0085_
*131 _0086_
*132 _0087_
*133 _0088_
*134 _0089_
*135 _0090_
*136 _0091_
*137 _0092_
*138 _0093_
*139 _0094_
*140 _0095_
*141 _0096_
*142 _0097_
*143 _0098_
*144 _0099_
*145 _0100_
*146 _0101_
*147 _0102_
*148 _0103_
*149 _0104_
*150 _0105_
*151 _0106_
*152 _0107_
*153 _0108_
*154 _0109_
*155 _0110_
*156 _0111_
*157 _0112_
*158 _0113_
*159 _0114_
*160 _0115_
*161 _0116_
*162 _0117_
*163 _0118_
*164 _0119_
*165 _0120_
*166 _0121_
*167 _0122_
*168 _0123_
*169 _0124_
*170 _0125_
*171 _0126_
*172 _0127_
*173 _0128_
*174 _0129_
*175 _0130_
*176 _0131_
*177 _0132_
*178 _0133_
*179 _0134_
*180 _0135_
*181 _0136_
*182 _0137_
*183 _0138_
*184 _0139_
*185 _0140_
*186 _0141_
*187 _0142_
*188 _0143_
*189 _0144_
*190 _0145_
*191 _0146_
*192 _0147_
*193 _0148_
*194 _0149_
*195 _0150_
*196 _0151_
*197 _0152_
*198 _0153_
*199 _0154_
*200 _0155_
*201 _0156_
*202 _0157_
*203 _0158_
*204 _0159_
*205 _0160_
*206 _0161_
*207 _0162_
*208 _0163_
*209 _0164_
*210 _0165_
*211 _0166_
*212 _0167_
*213 _0168_
*214 _0169_
*215 _0170_
*216 _0171_
*217 _0172_
*218 _0173_
*219 _0174_
*220 _0175_
*221 _0176_
*222 _0177_
*223 _0178_
*224 _0179_
*225 _0180_
*226 _0181_
*227 _0182_
*228 _0183_
*229 _0184_
*230 _0185_
*231 _0186_
*232 _0187_
*233 _0188_
*234 _0189_
*235 _0190_
*236 _0191_
*237 _0192_
*238 _0193_
*239 _0194_
*240 _0195_
*241 _0196_
*242 _0197_
*243 _0198_
*244 _0199_
*245 _0200_
*246 _0201_
*247 _0202_
*248 _0203_
*249 _0204_
*250 _0205_
*251 _0206_
*252 _0207_
*253 _0208_
*254 _0209_
*255 _0210_
*256 _0211_
*257 _0212_
*258 _0213_
*259 _0214_
*260 _0215_
*261 _0216_
*262 _0217_
*263 _0218_
*264 _0219_
*265 _0220_
*266 _0221_
*267 _0222_
*268 _0223_
*269 _0224_
*270 _0225_
*271 _0226_
*272 _0227_
*273 _0228_
*274 _0229_
*275 _0230_
*276 _0231_
*277 _0232_
*278 _0233_
*279 _0234_
*280 _0235_
*281 _0236_
*282 _0237_
*283 _0238_
*284 _0239_
*285 _0240_
*286 _0241_
*287 _0242_
*288 _0243_
*289 _0244_
*290 _0245_
*291 _0246_
*292 _0247_
*293 _0248_
*294 _0249_
*295 _0250_
*296 _0251_
*297 _0252_
*298 _0253_
*299 _0254_
*300 _0255_
*301 _0256_
*302 _0257_
*303 _0258_
*304 _0259_
*305 _0260_
*306 _0261_
*307 _0262_
*308 _0263_
*309 _0264_
*310 _0265_
*311 _0266_
*312 _0267_
*313 _0268_
*314 _0269_
*315 _0270_
*316 _0271_
*317 _0272_
*318 _0273_
*319 _0274_
*320 _0275_
*321 _0276_
*322 _0277_
*323 _0278_
*324 _0279_
*325 _0280_
*326 _0281_
*327 _0282_
*328 _0283_
*329 _0284_
*330 _0285_
*331 _0286_
*332 _0287_
*333 _0288_
*334 _0289_
*335 _0290_
*336 _0291_
*337 _0292_
*338 _0293_
*339 _0294_
*340 _0295_
*341 _0296_
*342 _0297_
*343 _0298_
*344 _0299_
*345 _0300_
*346 _0301_
*347 _0302_
*348 _0303_
*349 _0304_
*350 _0305_
*351 _0306_
*352 _0307_
*353 _0308_
*354 _0309_
*355 _0310_
*356 _0311_
*357 _0312_
*358 _0313_
*359 _0314_
*360 _0315_
*361 _0316_
*362 _0317_
*363 _0318_
*364 _0319_
*365 _0320_
*366 _0321_
*367 _0322_
*368 _0323_
*369 _0324_
*370 _0325_
*371 _0326_
*372 _0327_
*373 _0328_
*374 _0329_
*375 _0330_
*376 _0331_
*377 _0332_
*378 _0333_
*379 _0334_
*380 _0335_
*381 _0336_
*382 _0337_
*383 _0338_
*384 _0339_
*385 _0340_
*386 _0341_
*387 _0342_
*388 _0343_
*389 _0344_
*390 _0345_
*391 _0346_
*392 _0347_
*393 _0348_
*394 _0349_
*395 _0350_
*396 _0351_
*397 _0352_
*398 _0353_
*399 _0354_
*400 _0355_
*401 _0356_
*402 _0357_
*403 _0358_
*404 _0359_
*405 _0360_
*406 _0361_
*407 _0362_
*408 _0363_
*409 _0364_
*410 _0365_
*411 _0366_
*412 _0367_
*413 _0368_
*414 _0369_
*415 _0370_
*416 _0371_
*417 _0372_
*418 _0373_
*419 _0374_
*420 _0375_
*421 _0376_
*422 _0377_
*423 _0378_
*424 _0379_
*425 _0380_
*426 _0381_
*427 _0382_
*428 _0383_
*429 _0384_
*430 _0385_
*431 _0386_
*432 _0387_
*433 _0388_
*434 _0389_
*435 _0390_
*436 _0391_
*437 _0392_
*438 _0393_
*439 _0394_
*440 _0395_
*441 _0396_
*442 _0397_
*443 _0398_
*444 _0399_
*445 _0400_
*446 _0401_
*447 _0402_
*448 _0403_
*449 _0404_
*450 _0405_
*451 _0406_
*452 _0407_
*453 _0408_
*454 _0409_
*455 _0410_
*456 _0411_
*457 _0412_
*458 _0413_
*459 _0414_
*460 _0415_
*461 _0416_
*462 _0417_
*463 _0418_
*464 _0419_
*465 _0420_
*466 _0421_
*467 _0422_
*468 _0423_
*469 _0424_
*470 _0425_
*471 _0426_
*472 _0427_
*473 _0428_
*474 _0429_
*475 _0430_
*476 _0431_
*477 _0432_
*478 _0433_
*479 _0434_
*480 _0435_
*481 _0436_
*482 _0437_
*483 _0438_
*484 _0439_
*485 _0440_
*486 _0441_
*487 _0442_
*488 _0443_
*489 _0444_
*490 _0445_
*491 _0446_
*492 _0447_
*493 _0448_
*494 _0449_
*495 _0450_
*496 _0451_
*497 _0452_
*498 _0453_
*499 _0454_
*500 _0455_
*501 _0456_
*502 _0457_
*503 _0458_
*504 _0459_
*505 _0460_
*506 _0461_
*507 _0462_
*508 _0463_
*509 _0464_
*510 _0465_
*511 _0466_
*512 _0467_
*513 _0468_
*514 _0469_
*515 _0470_
*516 _0471_
*517 _0472_
*518 _0473_
*519 _0474_
*520 _0475_
*521 _0476_
*522 _0477_
*523 _0478_
*524 _0479_
*525 _0480_
*526 _0481_
*527 _0482_
*528 _0483_
*529 _0484_
*530 _0485_
*531 _0486_
*532 _0487_
*533 _0488_
*534 _0489_
*535 _0490_
*536 _0491_
*537 _0492_
*538 _0493_
*539 _0494_
*540 _0495_
*541 _0496_
*542 _0497_
*543 _0498_
*544 _0499_
*545 _0500_
*546 _0501_
*547 _0502_
*548 _0503_
*549 _0504_
*550 _0505_
*551 _0506_
*552 _0507_
*553 _0508_
*554 _0509_
*555 _0510_
*556 _0511_
*557 _0512_
*558 _0513_
*559 _0514_
*560 _0515_
*561 _0516_
*562 _0517_
*563 _0518_
*564 _0519_
*565 _0520_
*566 _0521_
*567 _0522_
*568 _0523_
*569 _0524_
*570 _0525_
*571 _0526_
*572 _0527_
*573 _0528_
*574 _0529_
*575 _0530_
*576 _0531_
*577 _0532_
*578 _0533_
*579 _0534_
*580 _0535_
*581 _0536_
*582 _0537_
*583 _0538_
*584 _0539_
*585 _0540_
*586 _0541_
*587 _0542_
*588 _0543_
*589 _0544_
*590 _0545_
*591 _0546_
*592 _0547_
*593 _0548_
*594 _0549_
*595 _0550_
*596 _0551_
*597 _0552_
*598 _0553_
*599 _0554_
*600 _0555_
*601 _0556_
*602 _0557_
*603 _0558_
*604 _0559_
*605 _0560_
*606 _0561_
*607 _0562_
*608 _0563_
*609 _0564_
*610 _0565_
*611 _0566_
*612 _0567_
*613 _0568_
*614 _0569_
*615 _0570_
*616 _0571_
*617 _0572_
*618 _0573_
*619 _0574_
*620 _0575_
*621 _0576_
*622 _0577_
*623 _0578_
*624 _0579_
*625 _0580_
*626 _0581_
*627 _0582_
*628 _0583_
*629 _0584_
*630 _0585_
*631 _0586_
*632 _0587_
*633 _0588_
*634 _0589_
*635 _0590_
*636 _0591_
*637 _0592_
*638 _0593_
*639 _0594_
*640 _0595_
*641 _0596_
*642 _0597_
*643 _0598_
*644 _0599_
*645 _0600_
*646 _0601_
*647 _0602_
*648 _0603_
*649 _0604_
*650 _0605_
*651 _0606_
*652 _0607_
*653 _0608_
*654 _0609_
*655 _0610_
*656 _0611_
*657 _0612_
*658 _0613_
*659 _0614_
*660 _0615_
*661 _0616_
*662 _0617_
*663 _0618_
*664 _0619_
*665 _0620_
*666 _0621_
*667 _0622_
*668 _0623_
*669 _0624_
*670 _0625_
*671 _0626_
*672 _0627_
*673 _0628_
*674 _0629_
*675 _0630_
*676 _0631_
*677 _0632_
*678 _0633_
*679 _0634_
*680 _0635_
*681 _0636_
*682 _0637_
*683 _0638_
*684 _0639_
*685 _0640_
*686 _0641_
*687 _0642_
*688 _0643_
*689 _0644_
*690 _0645_
*691 _0646_
*692 _0647_
*693 _0648_
*694 _0649_
*695 _0650_
*696 _0651_
*697 _0652_
*698 _0653_
*699 _0654_
*700 _0655_
*701 _0656_
*702 _0657_
*703 _0658_
*704 _0659_
*705 _0660_
*706 _0661_
*707 _0662_
*708 _0663_
*709 _0664_
*710 _0665_
*711 _0666_
*712 _0667_
*713 _0668_
*714 _0669_
*715 _0670_
*716 _0671_
*717 _0672_
*718 _0673_
*719 _0674_
*720 _0675_
*721 _0676_
*722 _0677_
*723 _0678_
*724 _0679_
*725 _0680_
*726 _0681_
*727 _0682_
*728 _0683_
*729 _0684_
*730 _0685_
*731 _0686_
*732 _0687_
*733 _0688_
*734 _0689_
*735 _0690_
*736 _0691_
*737 _0692_
*738 _0693_
*739 _0694_
*740 _0695_
*741 _0696_
*742 _0697_
*743 _0698_
*744 _0699_
*745 _0700_
*746 _0701_
*747 _0702_
*748 _0703_
*749 _0704_
*750 _0705_
*751 _0706_
*752 _0707_
*753 _0708_
*754 _0709_
*755 _0710_
*756 _0711_
*757 _0712_
*758 _0713_
*759 _0714_
*760 _0715_
*761 _0716_
*762 _0717_
*763 _0718_
*764 _0719_
*765 _0720_
*766 _0721_
*767 _0722_
*768 _0723_
*769 _0724_
*770 _0725_
*771 _0726_
*772 _0727_
*773 _0728_
*774 _0729_
*775 _0730_
*776 _0731_
*777 _0732_
*778 _0733_
*779 _0734_
*780 _0735_
*781 _0736_
*782 _0737_
*783 _0738_
*784 _0739_
*785 _0740_
*786 _0741_
*787 _0742_
*788 _0743_
*789 _0744_
*790 _0745_
*791 _0746_
*792 _0747_
*793 _0748_
*794 _0749_
*795 _0750_
*796 _0751_
*797 _0752_
*798 _0753_
*799 _0754_
*800 _0755_
*801 _0756_
*802 _0757_
*803 _0758_
*804 _0759_
*805 _0760_
*806 _0761_
*807 _0762_
*808 _0763_
*809 _0764_
*810 _0765_
*811 _0766_
*812 _0767_
*813 _0768_
*814 _0769_
*815 _0770_
*816 _0771_
*817 _0772_
*818 _0773_
*819 _0774_
*820 _0775_
*821 _0776_
*822 _0777_
*823 _0778_
*824 _0779_
*825 _0780_
*826 _0781_
*827 _0782_
*828 _0783_
*829 _0784_
*830 _0785_
*831 _0786_
*832 _0787_
*833 _0788_
*834 _0789_
*835 _0790_
*836 _0791_
*837 _0792_
*838 _0793_
*839 _0794_
*840 _0795_
*841 _0796_
*842 _0797_
*843 _0798_
*844 _0799_
*845 _0800_
*846 _0801_
*847 _0802_
*848 _0803_
*849 _0804_
*850 _0805_
*851 _0806_
*852 _0807_
*853 _0808_
*854 _0809_
*855 _0810_
*856 _0811_
*857 _0812_
*858 _0813_
*859 _0814_
*860 _0815_
*861 _0816_
*862 _0817_
*863 _0818_
*864 _0819_
*865 _0820_
*866 _0821_
*867 _0822_
*868 _0823_
*869 _0824_
*870 _0825_
*871 _0826_
*872 _0827_
*873 _0828_
*874 _0829_
*875 _0830_
*876 _0831_
*877 _0832_
*878 _0833_
*879 _0834_
*880 _0835_
*881 _0836_
*882 _0837_
*883 _0838_
*884 _0839_
*885 _0840_
*886 _0841_
*887 _0842_
*888 _0843_
*889 _0844_
*890 _0845_
*891 _0846_
*892 _0847_
*893 _0848_
*894 _0849_
*895 _0850_
*896 _0851_
*897 _0852_
*898 _0853_
*899 _0854_
*900 _0855_
*901 _0856_
*902 _0857_
*903 _0858_
*904 _0859_
*905 _0860_
*906 _0861_
*907 _0862_
*908 _0863_
*909 _0864_
*910 _0865_
*911 _0866_
*912 _0867_
*913 _0868_
*914 _0869_
*915 _0870_
*916 _0871_
*917 _0872_
*918 _0873_
*919 _0874_
*920 _0875_
*921 _0876_
*922 _0877_
*923 _0878_
*924 _0879_
*925 _0880_
*926 _0881_
*927 _0882_
*928 _0883_
*929 _0884_
*930 _0885_
*931 _0886_
*932 _0887_
*933 _0888_
*934 _0889_
*935 _0890_
*936 _0891_
*937 _0892_
*938 _0893_
*939 _0894_
*940 _0895_
*941 _0896_
*942 _0897_
*943 _0898_
*944 _0899_
*945 _0900_
*946 _0901_
*947 _0902_
*948 _0903_
*949 _0904_
*950 _0905_
*951 _0906_
*952 _0907_
*953 _0908_
*954 _0909_
*955 _0910_
*956 _0911_
*957 _0912_
*958 _0913_
*959 _0914_
*960 _0915_
*961 _0916_
*962 _0917_
*963 _0918_
*964 _0919_
*965 _0920_
*966 _0921_
*967 _0922_
*968 _0923_
*969 _0924_
*970 _0925_
*971 _0926_
*972 _0927_
*973 _0928_
*974 _0929_
*975 _0930_
*976 _0931_
*977 _0932_
*978 _0933_
*979 _0934_
*980 _0935_
*981 _0936_
*982 _0937_
*983 _0938_
*984 _0939_
*985 _0940_
*986 _0941_
*987 _0942_
*988 _0943_
*989 _0944_
*990 _0945_
*991 _0946_
*992 _0947_
*993 _0948_
*994 _0949_
*995 _0950_
*996 _0951_
*997 _0952_
*998 _0953_
*999 _0954_
*1000 _0955_
*1001 _0956_
*1002 _0957_
*1003 _0958_
*1004 _0959_
*1005 _0960_
*1006 _0961_
*1007 _0962_
*1008 _0963_
*1009 _0964_
*1010 _0965_
*1011 _0966_
*1012 _0967_
*1013 _0968_
*1014 _0969_
*1015 _0970_
*1016 _0971_
*1017 _0972_
*1018 _0973_
*1019 _0974_
*1020 _0975_
*1021 _0976_
*1022 _0977_
*1023 _0978_
*1024 _0979_
*1025 _0980_
*1026 _0981_
*1027 _0982_
*1028 _0983_
*1029 _0984_
*1030 _0985_
*1031 _0986_
*1032 _0987_
*1033 _0988_
*1034 _0989_
*1035 _0990_
*1036 _0991_
*1037 _0992_
*1038 _0993_
*1039 _0994_
*1040 _0995_
*1041 _0996_
*1042 _0997_
*1043 _0998_
*1044 _0999_
*1045 _1000_
*1046 _1001_
*1047 _1002_
*1048 _1003_
*1049 _1004_
*1050 _1005_
*1051 _1006_
*1052 _1007_
*1053 _1008_
*1054 _1009_
*1055 _1010_
*1056 _1011_
*1057 _1012_
*1058 _1013_
*1059 _1014_
*1060 _1015_
*1061 _1016_
*1062 _1017_
*1063 _1018_
*1064 _1019_
*1065 _1020_
*1066 _1021_
*1067 _1022_
*1068 _1023_
*1069 _1024_
*1070 _1025_
*1071 _1026_
*1072 _1027_
*1073 _1028_
*1074 _1029_
*1075 _1030_
*1076 _1031_
*1077 _1032_
*1078 _1033_
*1079 _1034_
*1080 _1035_
*1081 _1036_
*1082 _1037_
*1083 _1038_
*1084 _1039_
*1085 _1040_
*1086 _1041_
*1087 _1042_
*1088 _1043_
*1089 _1044_
*1090 _1045_
*1091 _1046_
*1092 _1047_
*1093 _1048_
*1094 _1049_
*1095 _1050_
*1096 _1051_
*1097 _1052_
*1098 _1053_
*1099 _1054_
*1100 _1055_
*1101 _1056_
*1102 _1057_
*1103 _1058_
*1104 _1059_
*1105 _1060_
*1106 _1061_
*1107 _1062_
*1108 _1063_
*1109 _1064_
*1110 _1065_
*1111 _1066_
*1112 _1067_
*1113 _1068_
*1114 _1069_
*1115 _1070_
*1116 _1071_
*1117 _1072_
*1118 _1073_
*1119 _1074_
*1120 _1075_
*1121 _1076_
*1122 _1077_
*1123 _1078_
*1124 _1079_
*1125 _1080_
*1126 _1081_
*1127 _1082_
*1128 _1083_
*1129 _1084_
*1130 _1085_
*1131 _1086_
*1132 _1087_
*1133 _1088_
*1134 _1089_
*1135 _1090_
*1136 _1091_
*1137 _1092_
*1138 _1093_
*1139 _1094_
*1140 _1095_
*1141 _1096_
*1142 _1097_
*1143 _1098_
*1144 _1099_
*1145 _1100_
*1146 _1101_
*1147 _1102_
*1148 _1103_
*1149 _1104_
*1150 _1105_
*1151 _1106_
*1152 _1107_
*1153 _1108_
*1154 _1109_
*1155 _1110_
*1156 _1111_
*1157 _1112_
*1158 _1113_
*1159 _1114_
*1160 _1115_
*1161 _1116_
*1162 _1117_
*1163 _1118_
*1164 _1119_
*1165 _1120_
*1166 _1121_
*1167 _1122_
*1168 _1123_
*1169 _1124_
*1170 _1125_
*1171 _1126_
*1172 clknet_0_clk
*1173 clknet_2_0__leaf_clk
*1174 clknet_2_1__leaf_clk
*1175 clknet_2_2__leaf_clk
*1176 clknet_2_3__leaf_clk
*1177 clknet_leaf_0_clk
*1178 clknet_leaf_10_clk
*1179 clknet_leaf_11_clk
*1180 clknet_leaf_12_clk
*1181 clknet_leaf_13_clk
*1182 clknet_leaf_14_clk
*1183 clknet_leaf_15_clk
*1184 clknet_leaf_16_clk
*1185 clknet_leaf_17_clk
*1186 clknet_leaf_18_clk
*1187 clknet_leaf_19_clk
*1188 clknet_leaf_1_clk
*1189 clknet_leaf_20_clk
*1190 clknet_leaf_21_clk
*1191 clknet_leaf_22_clk
*1192 clknet_leaf_23_clk
*1193 clknet_leaf_24_clk
*1194 clknet_leaf_25_clk
*1195 clknet_leaf_26_clk
*1196 clknet_leaf_27_clk
*1197 clknet_leaf_28_clk
*1198 clknet_leaf_29_clk
*1199 clknet_leaf_2_clk
*1200 clknet_leaf_30_clk
*1201 clknet_leaf_31_clk
*1202 clknet_leaf_32_clk
*1203 clknet_leaf_33_clk
*1204 clknet_leaf_3_clk
*1205 clknet_leaf_4_clk
*1206 clknet_leaf_5_clk
*1207 clknet_leaf_6_clk
*1208 clknet_leaf_7_clk
*1209 clknet_leaf_8_clk
*1210 clknet_leaf_9_clk
*1211 connect_gpios
*1212 connect_uart
*1213 connect_uart_status
*1214 i_uart_rx\.bit_sample
*1215 i_uart_rx\.cycle_counter\[0\]
*1216 i_uart_rx\.cycle_counter\[1\]
*1217 i_uart_rx\.cycle_counter\[2\]
*1218 i_uart_rx\.cycle_counter\[3\]
*1219 i_uart_rx\.cycle_counter\[4\]
*1220 i_uart_rx\.cycle_counter\[5\]
*1221 i_uart_rx\.cycle_counter\[6\]
*1222 i_uart_rx\.cycle_counter\[7\]
*1223 i_uart_rx\.fsm_state\[0\]
*1224 i_uart_rx\.fsm_state\[1\]
*1225 i_uart_rx\.fsm_state\[2\]
*1226 i_uart_rx\.fsm_state\[3\]
*1227 i_uart_rx\.recieved_data\[0\]
*1228 i_uart_rx\.recieved_data\[1\]
*1229 i_uart_rx\.recieved_data\[2\]
*1230 i_uart_rx\.recieved_data\[3\]
*1231 i_uart_rx\.recieved_data\[4\]
*1232 i_uart_rx\.recieved_data\[5\]
*1233 i_uart_rx\.recieved_data\[6\]
*1234 i_uart_rx\.recieved_data\[7\]
*1235 i_uart_rx\.rxd_reg
*1236 i_uart_rx\.uart_rts
*1237 i_uart_tx\.cycle_counter\[0\]
*1238 i_uart_tx\.cycle_counter\[1\]
*1239 i_uart_tx\.cycle_counter\[2\]
*1240 i_uart_tx\.cycle_counter\[3\]
*1241 i_uart_tx\.cycle_counter\[4\]
*1242 i_uart_tx\.cycle_counter\[5\]
*1243 i_uart_tx\.cycle_counter\[6\]
*1244 i_uart_tx\.cycle_counter\[7\]
*1245 i_uart_tx\.data_to_send\[0\]
*1246 i_uart_tx\.data_to_send\[1\]
*1247 i_uart_tx\.data_to_send\[2\]
*1248 i_uart_tx\.data_to_send\[3\]
*1249 i_uart_tx\.data_to_send\[4\]
*1250 i_uart_tx\.data_to_send\[5\]
*1251 i_uart_tx\.data_to_send\[6\]
*1252 i_uart_tx\.data_to_send\[7\]
*1253 i_uart_tx\.fsm_state\[0\]
*1254 i_uart_tx\.fsm_state\[1\]
*1255 i_uart_tx\.fsm_state\[2\]
*1256 i_uart_tx\.fsm_state\[3\]
*1257 i_uart_tx\.txd_reg
*1258 i_uart_tx\.uart_tx_data\[0\]
*1259 i_uart_tx\.uart_tx_data\[1\]
*1260 i_uart_tx\.uart_tx_data\[2\]
*1261 i_uart_tx\.uart_tx_data\[3\]
*1262 i_uart_tx\.uart_tx_data\[4\]
*1263 i_uart_tx\.uart_tx_data\[5\]
*1264 i_uart_tx\.uart_tx_data\[6\]
*1265 i_uart_tx\.uart_tx_data\[7\]
*1266 nano\.core\.alu\.cy_out
*1267 nano\.core\.b_imm\[10\]
*1268 nano\.core\.b_imm\[11\]
*1269 nano\.core\.b_imm\[12\]
*1270 nano\.core\.b_imm\[1\]
*1271 nano\.core\.b_imm\[2\]
*1272 nano\.core\.b_imm\[3\]
*1273 nano\.core\.b_imm\[4\]
*1274 nano\.core\.b_imm\[5\]
*1275 nano\.core\.b_imm\[6\]
*1276 nano\.core\.b_imm\[7\]
*1277 nano\.core\.b_imm\[8\]
*1278 nano\.core\.b_imm\[9\]
*1279 nano\.core\.counter\[0\]
*1280 nano\.core\.counter\[1\]
*1281 nano\.core\.counter\[2\]
*1282 nano\.core\.counter\[3\]
*1283 nano\.core\.counter\[4\]
*1284 nano\.core\.cy
*1285 nano\.core\.cycle\[0\]
*1286 nano\.core\.cycle\[1\]
*1287 nano\.core\.cycle\[2\]
*1288 nano\.core\.data_out\[0\]
*1289 nano\.core\.data_out\[10\]
*1290 nano\.core\.data_out\[11\]
*1291 nano\.core\.data_out\[12\]
*1292 nano\.core\.data_out\[13\]
*1293 nano\.core\.data_out\[14\]
*1294 nano\.core\.data_out\[15\]
*1295 nano\.core\.data_out\[16\]
*1296 nano\.core\.data_out\[17\]
*1297 nano\.core\.data_out\[18\]
*1298 nano\.core\.data_out\[19\]
*1299 nano\.core\.data_out\[1\]
*1300 nano\.core\.data_out\[20\]
*1301 nano\.core\.data_out\[21\]
*1302 nano\.core\.data_out\[22\]
*1303 nano\.core\.data_out\[23\]
*1304 nano\.core\.data_out\[2\]
*1305 nano\.core\.data_out\[3\]
*1306 nano\.core\.data_out\[4\]
*1307 nano\.core\.data_out\[5\]
*1308 nano\.core\.data_out\[6\]
*1309 nano\.core\.data_out\[7\]
*1310 nano\.core\.data_out\[8\]
*1311 nano\.core\.data_out\[9\]
*1312 nano\.core\.data_rd_next
*1313 nano\.core\.i_imm\[0\]
*1314 nano\.core\.i_imm\[1\]
*1315 nano\.core\.i_imm\[2\]
*1316 nano\.core\.i_imm\[3\]
*1317 nano\.core\.i_imm\[4\]
*1318 nano\.core\.i_registers\.last_data_rd_next
*1319 nano\.core\.i_registers\.read_through_rs1
*1320 nano\.core\.i_registers\.read_through_rs1_next
*1321 nano\.core\.i_registers\.read_through_rs2
*1322 nano\.core\.i_registers\.read_through_rs2_next
*1323 nano\.core\.i_registers\.reg_access\[10\]\[0\]
*1324 nano\.core\.i_registers\.reg_access\[10\]\[10\]
*1325 nano\.core\.i_registers\.reg_access\[10\]\[11\]
*1326 nano\.core\.i_registers\.reg_access\[10\]\[12\]
*1327 nano\.core\.i_registers\.reg_access\[10\]\[13\]
*1328 nano\.core\.i_registers\.reg_access\[10\]\[14\]
*1329 nano\.core\.i_registers\.reg_access\[10\]\[15\]
*1330 nano\.core\.i_registers\.reg_access\[10\]\[16\]
*1331 nano\.core\.i_registers\.reg_access\[10\]\[17\]
*1332 nano\.core\.i_registers\.reg_access\[10\]\[18\]
*1333 nano\.core\.i_registers\.reg_access\[10\]\[19\]
*1334 nano\.core\.i_registers\.reg_access\[10\]\[1\]
*1335 nano\.core\.i_registers\.reg_access\[10\]\[20\]
*1336 nano\.core\.i_registers\.reg_access\[10\]\[21\]
*1337 nano\.core\.i_registers\.reg_access\[10\]\[22\]
*1338 nano\.core\.i_registers\.reg_access\[10\]\[23\]
*1339 nano\.core\.i_registers\.reg_access\[10\]\[24\]
*1340 nano\.core\.i_registers\.reg_access\[10\]\[25\]
*1341 nano\.core\.i_registers\.reg_access\[10\]\[26\]
*1342 nano\.core\.i_registers\.reg_access\[10\]\[27\]
*1343 nano\.core\.i_registers\.reg_access\[10\]\[28\]
*1344 nano\.core\.i_registers\.reg_access\[10\]\[29\]
*1345 nano\.core\.i_registers\.reg_access\[10\]\[2\]
*1346 nano\.core\.i_registers\.reg_access\[10\]\[30\]
*1347 nano\.core\.i_registers\.reg_access\[10\]\[31\]
*1348 nano\.core\.i_registers\.reg_access\[10\]\[3\]
*1349 nano\.core\.i_registers\.reg_access\[10\]\[4\]
*1350 nano\.core\.i_registers\.reg_access\[10\]\[5\]
*1351 nano\.core\.i_registers\.reg_access\[10\]\[6\]
*1352 nano\.core\.i_registers\.reg_access\[10\]\[7\]
*1353 nano\.core\.i_registers\.reg_access\[10\]\[8\]
*1354 nano\.core\.i_registers\.reg_access\[10\]\[9\]
*1355 nano\.core\.i_registers\.reg_access\[11\]\[0\]
*1356 nano\.core\.i_registers\.reg_access\[11\]\[10\]
*1357 nano\.core\.i_registers\.reg_access\[11\]\[11\]
*1358 nano\.core\.i_registers\.reg_access\[11\]\[12\]
*1359 nano\.core\.i_registers\.reg_access\[11\]\[13\]
*1360 nano\.core\.i_registers\.reg_access\[11\]\[14\]
*1361 nano\.core\.i_registers\.reg_access\[11\]\[15\]
*1362 nano\.core\.i_registers\.reg_access\[11\]\[16\]
*1363 nano\.core\.i_registers\.reg_access\[11\]\[17\]
*1364 nano\.core\.i_registers\.reg_access\[11\]\[18\]
*1365 nano\.core\.i_registers\.reg_access\[11\]\[19\]
*1366 nano\.core\.i_registers\.reg_access\[11\]\[1\]
*1367 nano\.core\.i_registers\.reg_access\[11\]\[20\]
*1368 nano\.core\.i_registers\.reg_access\[11\]\[21\]
*1369 nano\.core\.i_registers\.reg_access\[11\]\[22\]
*1370 nano\.core\.i_registers\.reg_access\[11\]\[23\]
*1371 nano\.core\.i_registers\.reg_access\[11\]\[24\]
*1372 nano\.core\.i_registers\.reg_access\[11\]\[25\]
*1373 nano\.core\.i_registers\.reg_access\[11\]\[26\]
*1374 nano\.core\.i_registers\.reg_access\[11\]\[27\]
*1375 nano\.core\.i_registers\.reg_access\[11\]\[28\]
*1376 nano\.core\.i_registers\.reg_access\[11\]\[29\]
*1377 nano\.core\.i_registers\.reg_access\[11\]\[2\]
*1378 nano\.core\.i_registers\.reg_access\[11\]\[30\]
*1379 nano\.core\.i_registers\.reg_access\[11\]\[31\]
*1380 nano\.core\.i_registers\.reg_access\[11\]\[3\]
*1381 nano\.core\.i_registers\.reg_access\[11\]\[4\]
*1382 nano\.core\.i_registers\.reg_access\[11\]\[5\]
*1383 nano\.core\.i_registers\.reg_access\[11\]\[6\]
*1384 nano\.core\.i_registers\.reg_access\[11\]\[7\]
*1385 nano\.core\.i_registers\.reg_access\[11\]\[8\]
*1386 nano\.core\.i_registers\.reg_access\[11\]\[9\]
*1387 nano\.core\.i_registers\.reg_access\[12\]\[0\]
*1388 nano\.core\.i_registers\.reg_access\[12\]\[10\]
*1389 nano\.core\.i_registers\.reg_access\[12\]\[11\]
*1390 nano\.core\.i_registers\.reg_access\[12\]\[12\]
*1391 nano\.core\.i_registers\.reg_access\[12\]\[13\]
*1392 nano\.core\.i_registers\.reg_access\[12\]\[14\]
*1393 nano\.core\.i_registers\.reg_access\[12\]\[15\]
*1394 nano\.core\.i_registers\.reg_access\[12\]\[16\]
*1395 nano\.core\.i_registers\.reg_access\[12\]\[17\]
*1396 nano\.core\.i_registers\.reg_access\[12\]\[18\]
*1397 nano\.core\.i_registers\.reg_access\[12\]\[19\]
*1398 nano\.core\.i_registers\.reg_access\[12\]\[1\]
*1399 nano\.core\.i_registers\.reg_access\[12\]\[20\]
*1400 nano\.core\.i_registers\.reg_access\[12\]\[21\]
*1401 nano\.core\.i_registers\.reg_access\[12\]\[22\]
*1402 nano\.core\.i_registers\.reg_access\[12\]\[23\]
*1403 nano\.core\.i_registers\.reg_access\[12\]\[24\]
*1404 nano\.core\.i_registers\.reg_access\[12\]\[25\]
*1405 nano\.core\.i_registers\.reg_access\[12\]\[26\]
*1406 nano\.core\.i_registers\.reg_access\[12\]\[27\]
*1407 nano\.core\.i_registers\.reg_access\[12\]\[28\]
*1408 nano\.core\.i_registers\.reg_access\[12\]\[29\]
*1409 nano\.core\.i_registers\.reg_access\[12\]\[2\]
*1410 nano\.core\.i_registers\.reg_access\[12\]\[30\]
*1411 nano\.core\.i_registers\.reg_access\[12\]\[31\]
*1412 nano\.core\.i_registers\.reg_access\[12\]\[3\]
*1413 nano\.core\.i_registers\.reg_access\[12\]\[4\]
*1414 nano\.core\.i_registers\.reg_access\[12\]\[5\]
*1415 nano\.core\.i_registers\.reg_access\[12\]\[6\]
*1416 nano\.core\.i_registers\.reg_access\[12\]\[7\]
*1417 nano\.core\.i_registers\.reg_access\[12\]\[8\]
*1418 nano\.core\.i_registers\.reg_access\[12\]\[9\]
*1419 nano\.core\.i_registers\.reg_access\[13\]\[0\]
*1420 nano\.core\.i_registers\.reg_access\[13\]\[10\]
*1421 nano\.core\.i_registers\.reg_access\[13\]\[11\]
*1422 nano\.core\.i_registers\.reg_access\[13\]\[12\]
*1423 nano\.core\.i_registers\.reg_access\[13\]\[13\]
*1424 nano\.core\.i_registers\.reg_access\[13\]\[14\]
*1425 nano\.core\.i_registers\.reg_access\[13\]\[15\]
*1426 nano\.core\.i_registers\.reg_access\[13\]\[16\]
*1427 nano\.core\.i_registers\.reg_access\[13\]\[17\]
*1428 nano\.core\.i_registers\.reg_access\[13\]\[18\]
*1429 nano\.core\.i_registers\.reg_access\[13\]\[19\]
*1430 nano\.core\.i_registers\.reg_access\[13\]\[1\]
*1431 nano\.core\.i_registers\.reg_access\[13\]\[20\]
*1432 nano\.core\.i_registers\.reg_access\[13\]\[21\]
*1433 nano\.core\.i_registers\.reg_access\[13\]\[22\]
*1434 nano\.core\.i_registers\.reg_access\[13\]\[23\]
*1435 nano\.core\.i_registers\.reg_access\[13\]\[24\]
*1436 nano\.core\.i_registers\.reg_access\[13\]\[25\]
*1437 nano\.core\.i_registers\.reg_access\[13\]\[26\]
*1438 nano\.core\.i_registers\.reg_access\[13\]\[27\]
*1439 nano\.core\.i_registers\.reg_access\[13\]\[28\]
*1440 nano\.core\.i_registers\.reg_access\[13\]\[29\]
*1441 nano\.core\.i_registers\.reg_access\[13\]\[2\]
*1442 nano\.core\.i_registers\.reg_access\[13\]\[30\]
*1443 nano\.core\.i_registers\.reg_access\[13\]\[31\]
*1444 nano\.core\.i_registers\.reg_access\[13\]\[3\]
*1445 nano\.core\.i_registers\.reg_access\[13\]\[4\]
*1446 nano\.core\.i_registers\.reg_access\[13\]\[5\]
*1447 nano\.core\.i_registers\.reg_access\[13\]\[6\]
*1448 nano\.core\.i_registers\.reg_access\[13\]\[7\]
*1449 nano\.core\.i_registers\.reg_access\[13\]\[8\]
*1450 nano\.core\.i_registers\.reg_access\[13\]\[9\]
*1451 nano\.core\.i_registers\.reg_access\[14\]\[0\]
*1452 nano\.core\.i_registers\.reg_access\[14\]\[10\]
*1453 nano\.core\.i_registers\.reg_access\[14\]\[11\]
*1454 nano\.core\.i_registers\.reg_access\[14\]\[12\]
*1455 nano\.core\.i_registers\.reg_access\[14\]\[13\]
*1456 nano\.core\.i_registers\.reg_access\[14\]\[14\]
*1457 nano\.core\.i_registers\.reg_access\[14\]\[15\]
*1458 nano\.core\.i_registers\.reg_access\[14\]\[16\]
*1459 nano\.core\.i_registers\.reg_access\[14\]\[17\]
*1460 nano\.core\.i_registers\.reg_access\[14\]\[18\]
*1461 nano\.core\.i_registers\.reg_access\[14\]\[19\]
*1462 nano\.core\.i_registers\.reg_access\[14\]\[1\]
*1463 nano\.core\.i_registers\.reg_access\[14\]\[20\]
*1464 nano\.core\.i_registers\.reg_access\[14\]\[21\]
*1465 nano\.core\.i_registers\.reg_access\[14\]\[22\]
*1466 nano\.core\.i_registers\.reg_access\[14\]\[23\]
*1467 nano\.core\.i_registers\.reg_access\[14\]\[24\]
*1468 nano\.core\.i_registers\.reg_access\[14\]\[25\]
*1469 nano\.core\.i_registers\.reg_access\[14\]\[26\]
*1470 nano\.core\.i_registers\.reg_access\[14\]\[27\]
*1471 nano\.core\.i_registers\.reg_access\[14\]\[28\]
*1472 nano\.core\.i_registers\.reg_access\[14\]\[29\]
*1473 nano\.core\.i_registers\.reg_access\[14\]\[2\]
*1474 nano\.core\.i_registers\.reg_access\[14\]\[30\]
*1475 nano\.core\.i_registers\.reg_access\[14\]\[31\]
*1476 nano\.core\.i_registers\.reg_access\[14\]\[3\]
*1477 nano\.core\.i_registers\.reg_access\[14\]\[4\]
*1478 nano\.core\.i_registers\.reg_access\[14\]\[5\]
*1479 nano\.core\.i_registers\.reg_access\[14\]\[6\]
*1480 nano\.core\.i_registers\.reg_access\[14\]\[7\]
*1481 nano\.core\.i_registers\.reg_access\[14\]\[8\]
*1482 nano\.core\.i_registers\.reg_access\[14\]\[9\]
*1483 nano\.core\.i_registers\.reg_access\[15\]\[0\]
*1484 nano\.core\.i_registers\.reg_access\[15\]\[10\]
*1485 nano\.core\.i_registers\.reg_access\[15\]\[11\]
*1486 nano\.core\.i_registers\.reg_access\[15\]\[12\]
*1487 nano\.core\.i_registers\.reg_access\[15\]\[13\]
*1488 nano\.core\.i_registers\.reg_access\[15\]\[14\]
*1489 nano\.core\.i_registers\.reg_access\[15\]\[15\]
*1490 nano\.core\.i_registers\.reg_access\[15\]\[16\]
*1491 nano\.core\.i_registers\.reg_access\[15\]\[17\]
*1492 nano\.core\.i_registers\.reg_access\[15\]\[18\]
*1493 nano\.core\.i_registers\.reg_access\[15\]\[19\]
*1494 nano\.core\.i_registers\.reg_access\[15\]\[1\]
*1495 nano\.core\.i_registers\.reg_access\[15\]\[20\]
*1496 nano\.core\.i_registers\.reg_access\[15\]\[21\]
*1497 nano\.core\.i_registers\.reg_access\[15\]\[22\]
*1498 nano\.core\.i_registers\.reg_access\[15\]\[23\]
*1499 nano\.core\.i_registers\.reg_access\[15\]\[24\]
*1500 nano\.core\.i_registers\.reg_access\[15\]\[25\]
*1501 nano\.core\.i_registers\.reg_access\[15\]\[26\]
*1502 nano\.core\.i_registers\.reg_access\[15\]\[27\]
*1503 nano\.core\.i_registers\.reg_access\[15\]\[28\]
*1504 nano\.core\.i_registers\.reg_access\[15\]\[29\]
*1505 nano\.core\.i_registers\.reg_access\[15\]\[2\]
*1506 nano\.core\.i_registers\.reg_access\[15\]\[30\]
*1507 nano\.core\.i_registers\.reg_access\[15\]\[31\]
*1508 nano\.core\.i_registers\.reg_access\[15\]\[3\]
*1509 nano\.core\.i_registers\.reg_access\[15\]\[4\]
*1510 nano\.core\.i_registers\.reg_access\[15\]\[5\]
*1511 nano\.core\.i_registers\.reg_access\[15\]\[6\]
*1512 nano\.core\.i_registers\.reg_access\[15\]\[7\]
*1513 nano\.core\.i_registers\.reg_access\[15\]\[8\]
*1514 nano\.core\.i_registers\.reg_access\[15\]\[9\]
*1515 nano\.core\.i_registers\.reg_access\[1\]\[0\]
*1516 nano\.core\.i_registers\.reg_access\[1\]\[10\]
*1517 nano\.core\.i_registers\.reg_access\[1\]\[11\]
*1518 nano\.core\.i_registers\.reg_access\[1\]\[12\]
*1519 nano\.core\.i_registers\.reg_access\[1\]\[13\]
*1520 nano\.core\.i_registers\.reg_access\[1\]\[14\]
*1521 nano\.core\.i_registers\.reg_access\[1\]\[15\]
*1522 nano\.core\.i_registers\.reg_access\[1\]\[16\]
*1523 nano\.core\.i_registers\.reg_access\[1\]\[17\]
*1524 nano\.core\.i_registers\.reg_access\[1\]\[18\]