*SPEF "ieee 1481-1999"
*DESIGN "tt_um_simple_processor_pablopabota"
*DATE "11:11:11 Fri 11 11, 1111"
*VENDOR "OpenRCX"
*PROGRAM "Parallel Extraction"
*VERSION "1.0"
*DESIGN_FLOW "NAME_SCOPE LOCAL" "PIN_CAP NONE"
*DIVIDER /
*DELIMITER :
*BUS_DELIMITER []
*T_UNIT 1 NS
*C_UNIT 1 PF
*R_UNIT 1 OHM
*L_UNIT 1 HENRY

*NAME_MAP
*3 clk
*4 ena
*5 rst_n
*6 ui_in[0]
*7 ui_in[1]
*8 ui_in[2]
*9 ui_in[3]
*10 ui_in[4]
*11 ui_in[5]
*12 ui_in[6]
*13 ui_in[7]
*14 uio_in[0]
*15 uio_in[1]
*16 uio_in[2]
*17 uio_in[3]
*18 uio_in[4]
*19 uio_in[5]
*20 uio_in[6]
*21 uio_in[7]
*22 net35
*23 net36
*24 net37
*25 net38
*26 net39
*27 net40
*28 net41
*29 net42
*30 net43
*31 net44
*32 net45
*33 net46
*34 net47
*35 net48
*36 net49
*37 net50
*38 uo_out[0]
*39 uo_out[1]
*40 net51
*41 net52
*42 net53
*43 net54
*44 net55
*45 net56
*46 _0000_
*47 _0001_
*48 _0002_
*49 _0003_
*50 _0004_
*51 _0005_
*52 _0006_
*53 _0007_
*54 _0008_
*55 _0009_
*56 _0010_
*57 _0011_
*58 _0012_
*59 _0013_
*60 _0014_
*61 _0015_
*62 _0016_
*63 _0017_
*64 _0018_
*65 _0019_
*66 _0020_
*67 _0021_
*68 _0022_
*69 _0023_
*70 _0024_
*71 _0025_
*72 _0026_
*73 _0027_
*74 _0028_
*75 _0029_
*76 _0030_
*77 _0031_
*78 _0032_
*79 _0033_
*80 _0034_
*81 _0035_
*82 _0036_
*83 _0037_
*84 _0038_
*85 _0039_
*86 _0040_
*87 _0041_
*88 _0042_
*89 _0043_
*90 _0044_
*91 _0045_
*92 _0046_
*93 _0047_
*94 _0048_
*95 _0049_
*96 _0050_
*97 _0051_
*98 _0052_
*99 _0053_
*100 _0054_
*101 _0055_
*102 _0056_
*103 _0057_
*104 _0058_
*105 _0059_
*106 _0060_
*107 _0061_
*108 _0062_
*109 _0063_
*110 _0064_
*111 _0065_
*112 _0066_
*113 _0067_
*114 _0068_
*115 _0069_
*116 _0070_
*117 _0071_
*118 _0072_
*119 _0073_
*120 _0074_
*121 _0075_
*122 _0076_
*123 _0077_
*124 _0078_
*125 _0079_
*126 _0080_
*127 _0081_
*128 _0082_
*129 _0083_
*130 _0084_
*131 _0085_
*132 _0086_
*133 _0087_
*134 _0088_
*135 _0089_
*136 _0090_
*137 _0091_
*138 _0092_
*139 _0093_
*140 _0094_
*141 _0095_
*142 _0096_
*143 _0097_
*144 _0098_
*145 _0099_
*146 _0100_
*147 _0101_
*148 _0102_
*149 _0103_
*150 _0104_
*151 _0105_
*152 _0106_
*153 _0107_
*154 _0108_
*155 _0109_
*156 _0110_
*157 _0111_
*158 _0112_
*159 _0113_
*160 _0114_
*161 _0115_
*162 _0116_
*163 _0117_
*164 _0118_
*165 _0119_
*166 _0120_
*167 _0121_
*168 _0122_
*169 _0123_
*170 _0124_
*171 _0125_
*172 _0126_
*173 _0127_
*174 _0128_
*175 _0129_
*176 _0130_
*177 _0131_
*178 _0132_
*179 _0133_
*180 _0134_
*181 _0135_
*182 _0136_
*183 _0137_
*184 _0138_
*185 _0139_
*186 _0140_
*187 _0141_
*188 _0142_
*189 _0143_
*190 _0144_
*191 _0145_
*192 _0146_
*193 _0147_
*194 _0148_
*195 _0149_
*196 _0150_
*197 _0151_
*198 _0152_
*199 _0153_
*200 _0154_
*201 _0155_
*202 _0156_
*203 _0157_
*204 _0158_
*205 _0159_
*206 _0160_
*207 _0161_
*208 _0162_
*209 _0163_
*210 _0164_
*211 _0165_
*212 _0166_
*213 _0167_
*214 _0168_
*215 _0169_
*216 _0170_
*217 _0171_
*218 _0172_
*219 _0173_
*220 _0174_
*221 _0175_
*222 _0176_
*223 _0177_
*224 _0178_
*225 _0179_
*226 _0180_
*227 _0181_
*228 _0182_
*229 _0183_
*230 _0184_
*231 _0185_
*232 _0186_
*233 _0187_
*234 _0188_
*235 _0189_
*236 _0190_
*237 _0191_
*238 _0192_
*239 _0193_
*240 _0194_
*241 _0195_
*242 _0196_
*243 _0197_
*244 _0198_
*245 _0199_
*246 _0200_
*247 _0201_
*248 _0202_
*249 _0203_
*250 _0204_
*251 _0205_
*252 _0206_
*253 _0207_
*254 _0208_
*255 _0209_
*256 _0210_
*257 _0211_
*258 _0212_
*259 _0213_
*260 _0214_
*261 _0215_
*262 _0216_
*263 _0217_
*264 _0218_
*265 _0219_
*266 _0220_
*267 _0221_
*268 _0222_
*269 _0223_
*270 _0224_
*271 _0225_
*272 _0226_
*273 _0227_
*274 _0228_
*275 _0229_
*276 _0230_
*277 _0231_
*278 _0232_
*279 _0233_
*280 _0234_
*281 _0235_
*282 _0236_
*283 _0237_
*284 _0238_
*285 _0239_
*286 _0240_
*287 _0241_
*288 _0242_
*289 _0243_
*290 _0244_
*291 _0245_
*292 _0246_
*293 _0247_
*294 _0248_
*295 _0249_
*296 _0250_
*297 _0251_
*298 _0252_
*299 _0253_
*300 _0254_
*301 _0255_
*302 _0256_
*303 _0257_
*304 _0258_
*305 _0259_
*306 _0260_
*307 _0261_
*308 _0262_
*309 _0263_
*310 _0264_
*311 _0265_
*312 _0266_
*313 _0267_
*314 _0268_
*315 _0269_
*316 _0270_
*317 _0271_
*318 _0272_
*319 _0273_
*320 _0274_
*321 _0275_
*322 _0276_
*323 _0277_
*324 _0278_
*325 _0279_
*326 _0280_
*327 _0281_
*328 _0282_
*329 _0283_
*330 _0284_
*331 _0285_
*332 _0286_
*333 _0287_
*334 _0288_
*335 _0289_
*336 _0290_
*337 _0291_
*338 _0292_
*339 _0293_
*340 _0294_
*341 _0295_
*342 _0296_
*343 _0297_
*344 _0298_
*345 _0299_
*346 _0300_
*347 _0301_
*348 _0302_
*349 _0303_
*350 _0304_
*351 _0305_
*352 _0306_
*353 _0307_
*354 _0308_
*355 _0309_
*356 _0310_
*357 _0311_
*358 _0312_
*359 _0313_
*360 _0314_
*361 _0315_
*362 _0316_
*363 _0317_
*364 _0318_
*365 _0319_
*366 _0320_
*367 _0321_
*368 _0322_
*369 _0323_
*370 _0324_
*371 _0325_
*372 _0326_
*373 _0327_
*374 _0328_
*375 _0329_
*376 _0330_
*377 _0331_
*378 _0332_
*379 _0333_
*380 _0334_
*381 _0335_
*382 _0336_
*383 _0337_
*384 _0338_
*385 _0339_
*386 _0340_
*387 _0341_
*388 _0342_
*389 _0343_
*390 _0344_
*391 _0345_
*392 _0346_
*393 _0347_
*394 _0348_
*395 _0349_
*396 _0350_
*397 _0351_
*398 _0352_
*399 _0353_
*400 _0354_
*401 _0355_
*402 _0356_
*403 _0357_
*404 _0358_
*405 _0359_
*406 _0360_
*407 _0361_
*408 _0362_
*409 _0363_
*410 _0364_
*411 _0365_
*412 _0366_
*413 _0367_
*414 _0368_
*415 _0369_
*416 _0370_
*417 _0371_
*418 _0372_
*419 _0373_
*420 _0374_
*421 _0375_
*422 _0376_
*423 _0377_
*424 _0378_
*425 _0379_
*426 _0380_
*427 _0381_
*428 _0382_
*429 _0383_
*430 _0384_
*431 _0385_
*432 _0386_
*433 _0387_
*434 _0388_
*435 _0389_
*436 _0390_
*437 _0391_
*438 _0392_
*439 _0393_
*440 _0394_
*441 _0395_
*442 _0396_
*443 _0397_
*444 _0398_
*445 _0399_
*446 _0400_
*447 _0401_
*448 _0402_
*449 _0403_
*450 _0404_
*451 _0405_
*452 _0406_
*453 _0407_
*454 _0408_
*455 _0409_
*456 _0410_
*457 _0411_
*458 _0412_
*459 _0413_
*460 _0414_
*461 _0415_
*462 _0416_
*463 _0417_
*464 _0418_
*465 _0419_
*466 _0420_
*467 _0421_
*468 _0422_
*469 _0423_
*470 _0424_
*471 _0425_
*472 _0426_
*473 _0427_
*474 _0428_
*475 _0429_
*476 _0430_
*477 _0431_
*478 _0432_
*479 _0433_
*480 _0434_
*481 _0435_
*482 _0436_
*483 _0437_
*484 _0438_
*485 _0439_
*486 _0440_
*487 _0441_
*488 _0442_
*489 _0443_
*490 _0444_
*491 _0445_
*492 _0446_
*493 _0447_
*494 _0448_
*495 _0449_
*496 _0450_
*497 _0451_
*498 _0452_
*499 _0453_
*500 _0454_
*501 _0455_
*502 _0456_
*503 _0457_
*504 _0458_
*505 _0459_
*506 _0460_
*507 _0461_
*508 _0462_
*509 _0463_
*510 _0464_
*511 _0465_
*512 _0466_
*513 _0467_
*514 _0468_
*515 _0469_
*516 _0470_
*517 _0471_
*518 _0472_
*519 _0473_
*520 _0474_
*521 _0475_
*522 _0476_
*523 _0477_
*524 _0478_
*525 _0479_
*526 _0480_
*527 _0481_
*528 _0482_
*529 _0483_
*530 _0484_
*531 _0485_
*532 _0486_
*533 _0487_
*534 _0488_
*535 _0489_
*536 _0490_
*537 _0491_
*538 _0492_
*539 _0493_
*540 _0494_
*541 _0495_
*542 _0496_
*543 _0497_
*544 _0498_
*545 _0499_
*546 _0500_
*547 _0501_
*548 _0502_
*549 _0503_
*550 _0504_
*551 _0505_
*552 _0506_
*553 _0507_
*554 _0508_
*555 _0509_
*556 _0510_
*557 _0511_
*558 _0512_
*559 _0513_
*560 _0514_
*561 _0515_
*562 _0516_
*563 _0517_
*564 _0518_
*565 _0519_
*566 _0520_
*567 _0521_
*568 _0522_
*569 _0523_
*570 _0524_
*571 _0525_
*572 _0526_
*573 _0527_
*574 _0528_
*575 _0529_
*576 _0530_
*577 _0531_
*578 _0532_
*579 _0533_
*580 _0534_
*581 _0535_
*582 _0536_
*583 _0537_
*584 _0538_
*585 _0539_
*586 _0540_
*587 _0541_
*588 _0542_
*589 _0543_
*590 _0544_
*591 _0545_
*592 _0546_
*593 _0547_
*594 _0548_
*595 _0549_
*596 _0550_
*597 _0551_
*598 _0552_
*599 _0553_
*600 _0554_
*601 _0555_
*602 _0556_
*603 _0557_
*604 _0558_
*605 _0559_
*606 _0560_
*607 _0561_
*608 _0562_
*609 _0563_
*610 _0564_
*611 _0565_
*612 _0566_
*613 _0567_
*614 _0568_
*615 _0569_
*616 _0570_
*617 _0571_
*618 _0572_
*619 _0573_
*620 _0574_
*621 _0575_
*622 _0576_
*623 _0577_
*624 _0578_
*625 _0579_
*626 _0580_
*627 _0581_
*628 _0582_
*629 _0583_
*630 _0584_
*631 _0585_
*632 _0586_
*633 _0587_
*634 _0588_
*635 _0589_
*636 _0590_
*637 _0591_
*638 _0592_
*639 _0593_
*640 _0594_
*641 _0595_
*642 _0596_
*643 _0597_
*644 _0598_
*645 _0599_
*646 _0600_
*647 _0601_
*648 _0602_
*649 _0603_
*650 _0604_
*651 _0605_
*652 _0606_
*653 _0607_
*654 _0608_
*655 _0609_
*656 _0610_
*657 _0611_
*658 _0612_
*659 _0613_
*660 _0614_
*661 _0615_
*662 _0616_
*663 _0617_
*664 _0618_
*665 _0619_
*666 _0620_
*667 _0621_
*668 _0622_
*669 _0623_
*670 _0624_
*671 _0625_
*672 _0626_
*673 _0627_
*674 _0628_
*675 _0629_
*676 _0630_
*677 _0631_
*678 _0632_
*679 _0633_
*680 _0634_
*681 _0635_
*682 _0636_
*683 _0637_
*684 _0638_
*685 _0639_
*686 _0640_
*687 _0641_
*688 _0642_
*689 _0643_
*690 _0644_
*691 _0645_
*692 clknet_0_clk
*693 clknet_1_0__leaf_clk
*694 clknet_1_1__leaf_clk
*695 device_inst_mem\.i_data_in\[0\]
*696 device_inst_mem\.i_data_in\[1\]
*697 device_inst_mem\.i_data_in\[2\]
*698 device_inst_mem\.i_data_in\[3\]
*699 device_inst_mem\.i_data_in\[4\]
*700 device_inst_mem\.i_data_in\[5\]
*701 device_inst_mem\.i_data_in\[6\]
*702 device_inst_mem\.i_data_in\[7\]
*703 device_inst_mem\.mem\[0\]\[0\]
*704 device_inst_mem\.mem\[0\]\[1\]
*705 device_inst_mem\.mem\[0\]\[2\]
*706 device_inst_mem\.mem\[0\]\[3\]
*707 device_inst_mem\.mem\[0\]\[4\]
*708 device_inst_mem\.mem\[0\]\[5\]
*709 device_inst_mem\.mem\[0\]\[6\]
*710 device_inst_mem\.mem\[0\]\[7\]
*711 device_inst_mem\.mem\[10\]\[0\]
*712 device_inst_mem\.mem\[10\]\[1\]
*713 device_inst_mem\.mem\[10\]\[2\]
*714 device_inst_mem\.mem\[10\]\[3\]
*715 device_inst_mem\.mem\[10\]\[4\]
*716 device_inst_mem\.mem\[10\]\[5\]
*717 device_inst_mem\.mem\[10\]\[6\]
*718 device_inst_mem\.mem\[10\]\[7\]
*719 device_inst_mem\.mem\[11\]\[0\]
*720 device_inst_mem\.mem\[11\]\[1\]
*721 device_inst_mem\.mem\[11\]\[2\]
*722 device_inst_mem\.mem\[11\]\[3\]
*723 device_inst_mem\.mem\[11\]\[4\]
*724 device_inst_mem\.mem\[11\]\[5\]
*725 device_inst_mem\.mem\[11\]\[6\]
*726 device_inst_mem\.mem\[11\]\[7\]
*727 device_inst_mem\.mem\[12\]\[0\]
*728 device_inst_mem\.mem\[12\]\[1\]
*729 device_inst_mem\.mem\[12\]\[2\]
*730 device_inst_mem\.mem\[12\]\[3\]
*731 device_inst_mem\.mem\[12\]\[4\]
*732 device_inst_mem\.mem\[12\]\[5\]
*733 device_inst_mem\.mem\[12\]\[6\]
*734 device_inst_mem\.mem\[12\]\[7\]
*735 device_inst_mem\.mem\[13\]\[0\]
*736 device_inst_mem\.mem\[13\]\[1\]
*737 device_inst_mem\.mem\[13\]\[2\]
*738 device_inst_mem\.mem\[13\]\[3\]
*739 device_inst_mem\.mem\[13\]\[4\]
*740 device_inst_mem\.mem\[13\]\[5\]
*741 device_inst_mem\.mem\[13\]\[6\]
*742 device_inst_mem\.mem\[13\]\[7\]
*743 device_inst_mem\.mem\[14\]\[0\]
*744 device_inst_mem\.mem\[14\]\[1\]
*745 device_inst_mem\.mem\[14\]\[2\]
*746 device_inst_mem\.mem\[14\]\[3\]
*747 device_inst_mem\.mem\[14\]\[4\]
*748 device_inst_mem\.mem\[14\]\[5\]
*749 device_inst_mem\.mem\[14\]\[6\]
*750 device_inst_mem\.mem\[14\]\[7\]
*751 device_inst_mem\.mem\[15\]\[0\]
*752 device_inst_mem\.mem\[15\]\[1\]
*753 device_inst_mem\.mem\[15\]\[2\]
*754 device_inst_mem\.mem\[15\]\[3\]
*755 device_inst_mem\.mem\[15\]\[4\]
*756 device_inst_mem\.mem\[15\]\[5\]
*757 device_inst_mem\.mem\[15\]\[6\]
*758 device_inst_mem\.mem\[15\]\[7\]
*759 device_inst_mem\.mem\[16\]\[0\]
*760 device_inst_mem\.mem\[16\]\[1\]
*761 device_inst_mem\.mem\[16\]\[2\]
*762 device_inst_mem\.mem\[16\]\[3\]
*763 device_inst_mem\.mem\[16\]\[4\]
*764 device_inst_mem\.mem\[16\]\[5\]
*765 device_inst_mem\.mem\[16\]\[6\]
*766 device_inst_mem\.mem\[16\]\[7\]
*767 device_inst_mem\.mem\[17\]\[0\]
*768 device_inst_mem\.mem\[17\]\[1\]
*769 device_inst_mem\.mem\[17\]\[2\]
*770 device_inst_mem\.mem\[17\]\[3\]
*771 device_inst_mem\.mem\[17\]\[4\]
*772 device_inst_mem\.mem\[17\]\[5\]
*773 device_inst_mem\.mem\[17\]\[6\]
*774 device_inst_mem\.mem\[17\]\[7\]
*775 device_inst_mem\.mem\[18\]\[0\]
*776 device_inst_mem\.mem\[18\]\[1\]
*777 device_inst_mem\.mem\[18\]\[2\]
*778 device_inst_mem\.mem\[18\]\[3\]
*779 device_inst_mem\.mem\[18\]\[4\]
*780 device_inst_mem\.mem\[18\]\[5\]
*781 device_inst_mem\.mem\[18\]\[6\]
*782 device_inst_mem\.mem\[18\]\[7\]
*783 device_inst_mem\.mem\[19\]\[0\]
*784 device_inst_mem\.mem\[19\]\[1\]
*785 device_inst_mem\.mem\[19\]\[2\]
*786 device_inst_mem\.mem\[19\]\[3\]
*787 device_inst_mem\.mem\[19\]\[4\]
*788 device_inst_mem\.mem\[19\]\[5\]
*789 device_inst_mem\.mem\[19\]\[6\]
*790 device_inst_mem\.mem\[19\]\[7\]
*791 device_inst_mem\.mem\[1\]\[0\]
*792 device_inst_mem\.mem\[1\]\[1\]
*793 device_inst_mem\.mem\[1\]\[2\]
*794 device_inst_mem\.mem\[1\]\[3\]
*795 device_inst_mem\.mem\[1\]\[4\]
*796 device_inst_mem\.mem\[1\]\[5\]
*797 device_inst_mem\.mem\[1\]\[6\]
*798 device_inst_mem\.mem\[1\]\[7\]
*799 device_inst_mem\.mem\[20\]\[0\]
*800 device_inst_mem\.mem\[20\]\[1\]
*801 device_inst_mem\.mem\[20\]\[2\]
*802 device_inst_mem\.mem\[20\]\[3\]
*803 device_inst_mem\.mem\[20\]\[4\]
*804 device_inst_mem\.mem\[20\]\[5\]
*805 device_inst_mem\.mem\[20\]\[6\]
*806 device_inst_mem\.mem\[20\]\[7\]
*807 device_inst_mem\.mem\[21\]\[0\]
*808 device_inst_mem\.mem\[21\]\[1\]
*809 device_inst_mem\.mem\[21\]\[2\]
*810 device_inst_mem\.mem\[21\]\[3\]
*811 device_inst_mem\.mem\[21\]\[4\]
*812 device_inst_mem\.mem\[21\]\[5\]
*813 device_inst_mem\.mem\[21\]\[6\]
*814 device_inst_mem\.mem\[21\]\[7\]
*815 device_inst_mem\.mem\[22\]\[0\]
*816 device_inst_mem\.mem\[22\]\[1\]
*817 device_inst_mem\.mem\[22\]\[2\]
*818 device_inst_mem\.mem\[22\]\[3\]
*819 device_inst_mem\.mem\[22\]\[4\]
*820 device_inst_mem\.mem\[22\]\[5\]
*821 device_inst_mem\.mem\[22\]\[6\]
*822 device_inst_mem\.mem\[22\]\[7\]
*823 device_inst_mem\.mem\[23\]\[0\]
*824 device_inst_mem\.mem\[23\]\[1\]
*825 device_inst_mem\.mem\[23\]\[2\]
*826 device_inst_mem\.mem\[23\]\[3\]
*827 device_inst_mem\.mem\[23\]\[4\]
*828 device_inst_mem\.mem\[23\]\[5\]
*829 device_inst_mem\.mem\[23\]\[6\]
*830 device_inst_mem\.mem\[23\]\[7\]
*831 device_inst_mem\.mem\[2\]\[0\]
*832 device_inst_mem\.mem\[2\]\[1\]
*833 device_inst_mem\.mem\[2\]\[2\]
*834 device_inst_mem\.mem\[2\]\[3\]
*835 device_inst_mem\.mem\[2\]\[4\]
*836 device_inst_mem\.mem\[2\]\[5\]
*837 device_inst_mem\.mem\[2\]\[6\]
*838 device_inst_mem\.mem\[2\]\[7\]
*839 device_inst_mem\.mem\[3\]\[0\]
*840 device_inst_mem\.mem\[3\]\[1\]
*841 device_inst_mem\.mem\[3\]\[2\]
*842 device_inst_mem\.mem\[3\]\[3\]
*843 device_inst_mem\.mem\[3\]\[4\]
*844 device_inst_mem\.mem\[3\]\[5\]
*845 device_inst_mem\.mem\[3\]\[6\]
*846 device_inst_mem\.mem\[3\]\[7\]
*847 device_inst_mem\.mem\[4\]\[0\]
*848 device_inst_mem\.mem\[4\]\[1\]
*849 device_inst_mem\.mem\[4\]\[2\]
*850 device_inst_mem\.mem\[4\]\[3\]
*851 device_inst_mem\.mem\[4\]\[4\]
*852 device_inst_mem\.mem\[4\]\[5\]
*853 device_inst_mem\.mem\[4\]\[6\]
*854 device_inst_mem\.mem\[4\]\[7\]
*855 device_inst_mem\.mem\[5\]\[0\]
*856 device_inst_mem\.mem\[5\]\[1\]
*857 device_inst_mem\.mem\[5\]\[2\]
*858 device_inst_mem\.mem\[5\]\[3\]
*859 device_inst_mem\.mem\[5\]\[4\]
*860 device_inst_mem\.mem\[5\]\[5\]
*861 device_inst_mem\.mem\[5\]\[6\]
*862 device_inst_mem\.mem\[5\]\[7\]
*863 device_inst_mem\.mem\[6\]\[0\]
*864 device_inst_mem\.mem\[6\]\[1\]
*865 device_inst_mem\.mem\[6\]\[2\]
*866 device_inst_mem\.mem\[6\]\[3\]
*867 device_inst_mem\.mem\[6\]\[4\]
*868 device_inst_mem\.mem\[6\]\[5\]
*869 device_inst_mem\.mem\[6\]\[6\]
*870 device_inst_mem\.mem\[6\]\[7\]
*871 device_inst_mem\.mem\[7\]\[0\]
*872 device_inst_mem\.mem\[7\]\[1\]
*873 device_inst_mem\.mem\[7\]\[2\]
*874 device_inst_mem\.mem\[7\]\[3\]
*875 device_inst_mem\.mem\[7\]\[4\]
*876 device_inst_mem\.mem\[7\]\[5\]
*877 device_inst_mem\.mem\[7\]\[6\]
*878 device_inst_mem\.mem\[7\]\[7\]
*879 device_inst_mem\.mem\[8\]\[0\]
*880 device_inst_mem\.mem\[8\]\[1\]
*881 device_inst_mem\.mem\[8\]\[2\]
*882 device_inst_mem\.mem\[8\]\[3\]
*883 device_inst_mem\.mem\[8\]\[4\]
*884 device_inst_mem\.mem\[8\]\[5\]
*885 device_inst_mem\.mem\[8\]\[6\]
*886 device_inst_mem\.mem\[8\]\[7\]
*887 device_inst_mem\.mem\[9\]\[0\]
*888 device_inst_mem\.mem\[9\]\[1\]
*889 device_inst_mem\.mem\[9\]\[2\]
*890 device_inst_mem\.mem\[9\]\[3\]
*891 device_inst_mem\.mem\[9\]\[4\]
*892 device_inst_mem\.mem\[9\]\[5\]
*893 device_inst_mem\.mem\[9\]\[6\]
*894 device_inst_mem\.mem\[9\]\[7\]
*895 i2c_prog_port\.addr_reg\[0\]
*896 i2c_prog_port\.addr_reg\[1\]
*897 i2c_prog_port\.addr_reg\[2\]
*898 i2c_prog_port\.addr_reg\[3\]
*899 i2c_prog_port\.addr_reg\[4\]
*900 i2c_prog_port\.addr_reg\[5\]
*901 i2c_prog_port\.addr_reg\[6\]
*902 i2c_prog_port\.addr_reg\[7\]
*903 i2c_prog_port\.bit_counter\[0\]
*904 i2c_prog_port\.bit_counter\[1\]
*905 i2c_prog_port\.bit_counter\[2\]
*906 i2c_prog_port\.bit_counter\[3\]
*907 i2c_prog_port\.index_pointer\[0\]
*908 i2c_prog_port\.index_pointer\[1\]
*909 i2c_prog_port\.index_pointer\[2\]
*910 i2c_prog_port\.index_pointer\[3\]
*911 i2c_prog_port\.index_pointer\[4\]
*912 i2c_prog_port\.index_pointer\[5\]
*913 i2c_prog_port\.index_pointer\[6\]
*914 i2c_prog_port\.index_pointer\[7\]
*915 i2c_prog_port\.input_shift\[0\]
*916 i2c_prog_port\.input_shift\[1\]
*917 i2c_prog_port\.input_shift\[2\]
*918 i2c_prog_port\.input_shift\[3\]
*919 i2c_prog_port\.input_shift\[4\]
*920 i2c_prog_port\.input_shift\[5\]
*921 i2c_prog_port\.input_shift\[6\]
*922 i2c_prog_port\.input_shift\[7\]
*923 i2c_prog_port\.master_ack
*924 i2c_prog_port\.o_sda
*925 i2c_prog_port\.output_control
*926 i2c_prog_port\.output_shift\[0\]
*927 i2c_prog_port\.output_shift\[1\]
*928 i2c_prog_port\.output_shift\[2\]
*929 i2c_prog_port\.output_shift\[3\]
*930 i2c_prog_port\.output_shift\[4\]
*931 i2c_prog_port\.output_shift\[5\]
*932 i2c_prog_port\.output_shift\[6\]
*933 i2c_prog_port\.output_shift\[7\]
*934 i2c_prog_port\.reg_03\[0\]
*935 i2c_prog_port\.reg_03\[1\]
*936 i2c_prog_port\.reg_03\[2\]
*937 i2c_prog_port\.reg_03\[3\]
*938 i2c_prog_port\.reg_03\[4\]
*939 i2c_prog_port\.reg_03\[5\]
*940 i2c_prog_port\.reg_03\[6\]
*941 i2c_prog_port\.reg_03\[7\]
*942 i2c_prog_port\.start_detect
*943 i2c_prog_port\.start_resetter
*944 i2c_prog_port\.state\[1\]
*945 i2c_prog_port\.state\[2\]
*946 i2c_prog_port\.state\[3\]
*947 i2c_prog_port\.state\[4\]
*948 i2c_prog_port\.stop_detect
*949 i2c_prog_port\.stop_resetter
*950 net1
*951 net10
*952 net11
*953 net12
*954 net13
*955 net14
*956 net15
*957 net16
*958 net17
*959 net18
*960 net19
*961 net2
*962 net20
*963 net21
*964 net22
*965 net23
*966 net24
*967 net25
*968 net26
*969 net27
*970 net28
*971 net29
*972 net3
*973 net30
*974 net31
*975 net32
*976 net33
*977 net34
*978 net4
*979 net5
*980 net57
*981 net58
*982 net59
*983 net6
*984 net60
*985 net61
*986 net62
*987 net63
*988 net64
*989 net65
*990 net7
*991 net8
*992 net9
*993 program_counter_register\.i_data_in\[0\]
*994 program_counter_register\.i_data_in\[1\]
*995 program_counter_register\.i_data_in\[2\]
*996 program_counter_register\.i_data_in\[3\]
*997 program_counter_register\.i_data_in\[4\]
*998 program_counter_register\.mem\[0\]
*999 program_counter_register\.mem\[1\]
*1000 program_counter_register\.mem\[2\]
*1001 program_counter_register\.mem\[3\]
*1002 program_counter_register\.mem\[4\]
*1003 program_counter_register\.o_data_out\[0\]
*1004 program_counter_register\.o_data_out\[1\]
*1005 program_counter_register\.o_data_out\[2\]
*1006 program_counter_register\.o_data_out\[3\]
*1007 program_counter_register\.o_data_out\[4\]
*1008 FILLER_0_0_109
*1009 FILLER_0_0_113
*1010 FILLER_0_0_137
*1011 FILLER_0_0_141
*1012 FILLER_0_0_15
*1013 FILLER_0_0_159
*1014 FILLER_0_0_167
*1015 FILLER_0_0_181
*1016 FILLER_0_0_193
*1017 FILLER_0_0_200
*1018 FILLER_0_0_204
*1019 FILLER_0_0_217
*1020 FILLER_0_0_223
*1021 FILLER_0_0_225
*1022 FILLER_0_0_239
*1023 FILLER_0_0_251
*1024 FILLER_0_0_253
*1025 FILLER_0_0_265
*1026 FILLER_0_0_27
*1027 FILLER_0_0_277
*1028 FILLER_0_0_281
*1029 FILLER_0_0_29
*1030 FILLER_0_0_293
*1031 FILLER_0_0_3
*1032 FILLER_0_0_305
*1033 FILLER_0_0_309
*1034 FILLER_0_0_321
*1035 FILLER_0_0_333
*1036 FILLER_0_0_337
*1037 FILLER_0_0_349
*1038 FILLER_0_0_41
*1039 FILLER_0_0_53
*1040 FILLER_0_0_57
*1041 FILLER_0_0_69
*1042 FILLER_0_0_81
*1043 FILLER_0_0_97
*1044 FILLER_0_10_118
*1045 FILLER_0_10_123
*1046 FILLER_0_10_138
*1047 FILLER_0_10_141
*1048 FILLER_0_10_155
*1049 FILLER_0_10_171
*1050 FILLER_0_10_183
*1051 FILLER_0_10_19
*1052 FILLER_0_10_195
*1053 FILLER_0_10_201
*1054 FILLER_0_10_217
*1055 FILLER_0_10_225
*1056 FILLER_0_10_236
*1057 FILLER_0_10_244
*1058 FILLER_0_10_249
*1059 FILLER_0_10_253
*1060 FILLER_0_10_259
*1061 FILLER_0_10_27
*1062 FILLER_0_10_275
*1063 FILLER_0_10_3
*1064 FILLER_0_10_301
*1065 FILLER_0_10_307
*1066 FILLER_0_10_333
*1067 FILLER_0_10_348
*1068 FILLER_0_10_48
*1069 FILLER_0_10_52
*1070 FILLER_0_10_65
*1071 FILLER_0_10_73
*1072 FILLER_0_10_81
*1073 FILLER_0_10_85
*1074 FILLER_0_10_89
*1075 FILLER_0_11_101
*1076 FILLER_0_11_109
*1077 FILLER_0_11_113
*1078 FILLER_0_11_119
*1079 FILLER_0_11_132
*1080 FILLER_0_11_136
*1081 FILLER_0_11_164
*1082 FILLER_0_11_169
*1083 FILLER_0_11_175
*1084 FILLER_0_11_181
*1085 FILLER_0_11_19
*1086 FILLER_0_11_208
*1087 FILLER_0_11_223
*1088 FILLER_0_11_225
*1089 FILLER_0_11_238
*1090 FILLER_0_11_25
*1091 FILLER_0_11_260
*1092 FILLER_0_11_264
*1093 FILLER_0_11_270
*1094 FILLER_0_11_281
*1095 FILLER_0_11_287
*1096 FILLER_0_11_291
*1097 FILLER_0_11_3
*1098 FILLER_0_11_303
*1099 FILLER_0_11_314
*1100 FILLER_0_11_322
*1101 FILLER_0_11_333
*1102 FILLER_0_11_349
*1103 FILLER_0_11_45
*1104 FILLER_0_11_53
*1105 FILLER_0_11_69
*1106 FILLER_0_12_117
*1107 FILLER_0_12_139
*1108 FILLER_0_12_146
*1109 FILLER_0_12_154
*1110 FILLER_0_12_181
*1111 FILLER_0_12_189
*1112 FILLER_0_12_19
*1113 FILLER_0_12_197
*1114 FILLER_0_12_209
*1115 FILLER_0_12_232
*1116 FILLER_0_12_253
*1117 FILLER_0_12_259
*1118 FILLER_0_12_27
*1119 FILLER_0_12_272
*1120 FILLER_0_12_278
*1121 FILLER_0_12_29
*1122 FILLER_0_12_293
*1123 FILLER_0_12_3
*1124 FILLER_0_12_309
*1125 FILLER_0_12_324
*1126 FILLER_0_12_335
*1127 FILLER_0_12_347
*1128 FILLER_0_12_41
*1129 FILLER_0_12_49
*1130 FILLER_0_12_71
*1131 FILLER_0_12_83
*1132 FILLER_0_12_85
*1133 FILLER_0_12_97
*1134 FILLER_0_13_110
*1135 FILLER_0_13_129
*1136 FILLER_0_13_141
*1137 FILLER_0_13_158
*1138 FILLER_0_13_166
*1139 FILLER_0_13_169
*1140 FILLER_0_13_173
*1141 FILLER_0_13_181
*1142 FILLER_0_13_189
*1143 FILLER_0_13_197
*1144 FILLER_0_13_218
*1145 FILLER_0_13_245
*1146 FILLER_0_13_249
*1147 FILLER_0_13_256
*1148 FILLER_0_13_268
*1149 FILLER_0_13_278
*1150 FILLER_0_13_281
*1151 FILLER_0_13_3
*1152 FILLER_0_13_302
*1153 FILLER_0_13_310
*1154 FILLER_0_13_321
*1155 FILLER_0_13_329
*1156 FILLER_0_13_348
*1157 FILLER_0_13_47
*1158 FILLER_0_13_55
*1159 FILLER_0_13_69
*1160 FILLER_0_13_73
*1161 FILLER_0_13_86
*1162 FILLER_0_14_100
*1163 FILLER_0_14_108
*1164 FILLER_0_14_116
*1165 FILLER_0_14_128
*1166 FILLER_0_14_136
*1167 FILLER_0_14_152
*1168 FILLER_0_14_163
*1169 FILLER_0_14_190
*1170 FILLER_0_14_197
*1171 FILLER_0_14_209
*1172 FILLER_0_14_21
*1173 FILLER_0_14_221
*1174 FILLER_0_14_225
*1175 FILLER_0_14_229
*1176 FILLER_0_14_236
*1177 FILLER_0_14_247
*1178 FILLER_0_14_251
*1179 FILLER_0_14_257
*1180 FILLER_0_14_27
*1181 FILLER_0_14_286
*1182 FILLER_0_14_29
*1183 FILLER_0_14_3
*1184 FILLER_0_14_304
*1185 FILLER_0_14_309
*1186 FILLER_0_14_319
*1187 FILLER_0_14_334
*1188 FILLER_0_14_348
*1189 FILLER_0_14_35
*1190 FILLER_0_14_43
*1191 FILLER_0_14_51
*1192 FILLER_0_14_66
*1193 FILLER_0_14_75
*1194 FILLER_0_14_83
*1195 FILLER_0_14_85
*1196 FILLER_0_15_104
*1197 FILLER_0_15_113
*1198 FILLER_0_15_127
*1199 FILLER_0_15_150
*1200 FILLER_0_15_166
*1201 FILLER_0_15_169
*1202 FILLER_0_15_176
*1203 FILLER_0_15_201
*1204 FILLER_0_15_22
*1205 FILLER_0_15_222
*1206 FILLER_0_15_225
*1207 FILLER_0_15_239
*1208 FILLER_0_15_262
*1209 FILLER_0_15_275
*1210 FILLER_0_15_28
*1211 FILLER_0_15_281
*1212 FILLER_0_15_298
*1213 FILLER_0_15_3
*1214 FILLER_0_15_310
*1215 FILLER_0_15_314
*1216 FILLER_0_15_326
*1217 FILLER_0_15_334
*1218 FILLER_0_15_349
*1219 FILLER_0_15_48
*1220 FILLER_0_15_57
*1221 FILLER_0_15_70
*1222 FILLER_0_16_108
*1223 FILLER_0_16_114
*1224 FILLER_0_16_127
*1225 FILLER_0_16_139
*1226 FILLER_0_16_141
*1227 FILLER_0_16_147
*1228 FILLER_0_16_153
*1229 FILLER_0_16_16
*1230 FILLER_0_16_165
*1231 FILLER_0_16_174
*1232 FILLER_0_16_182
*1233 FILLER_0_16_192
*1234 FILLER_0_16_197
*1235 FILLER_0_16_212
*1236 FILLER_0_16_228
*1237 FILLER_0_16_250
*1238 FILLER_0_16_253
*1239 FILLER_0_16_259
*1240 FILLER_0_16_274
*1241 FILLER_0_16_3
*1242 FILLER_0_16_306
*1243 FILLER_0_16_309
*1244 FILLER_0_16_325
*1245 FILLER_0_16_337
*1246 FILLER_0_16_36
*1247 FILLER_0_16_43
*1248 FILLER_0_16_55
*1249 FILLER_0_16_67
*1250 FILLER_0_16_79
*1251 FILLER_0_16_83
*1252 FILLER_0_16_85
*1253 FILLER_0_16_97
*1254 FILLER_0_17_102
*1255 FILLER_0_17_11
*1256 FILLER_0_17_110
*1257 FILLER_0_17_113
*1258 FILLER_0_17_131
*1259 FILLER_0_17_169
*1260 FILLER_0_17_174
*1261 FILLER_0_17_199
*1262 FILLER_0_17_207
*1263 FILLER_0_17_213
*1264 FILLER_0_17_221
*1265 FILLER_0_17_225
*1266 FILLER_0_17_235
*1267 FILLER_0_17_243
*1268 FILLER_0_17_253
*1269 FILLER_0_17_259
*1270 FILLER_0_17_26
*1271 FILLER_0_17_268
*1272 FILLER_0_17_281
*1273 FILLER_0_17_293
*1274 FILLER_0_17_3
*1275 FILLER_0_17_306
*1276 FILLER_0_17_318
*1277 FILLER_0_17_330
*1278 FILLER_0_17_349
*1279 FILLER_0_17_38
*1280 FILLER_0_17_42
*1281 FILLER_0_17_55
*1282 FILLER_0_17_57
*1283 FILLER_0_17_69
*1284 FILLER_0_17_87
*1285 FILLER_0_17_95
*1286 FILLER_0_18_104
*1287 FILLER_0_18_11
*1288 FILLER_0_18_113
*1289 FILLER_0_18_127
*1290 FILLER_0_18_136
*1291 FILLER_0_18_141
*1292 FILLER_0_18_146
*1293 FILLER_0_18_155
*1294 FILLER_0_18_167
*1295 FILLER_0_18_178
*1296 FILLER_0_18_190
*1297 FILLER_0_18_223
*1298 FILLER_0_18_247
*1299 FILLER_0_18_251
*1300 FILLER_0_18_26
*1301 FILLER_0_18_285
*1302 FILLER_0_18_298
*1303 FILLER_0_18_3
*1304 FILLER_0_18_332
*1305 FILLER_0_18_347
*1306 FILLER_0_18_41
*1307 FILLER_0_18_73
*1308 FILLER_0_18_81
*1309 FILLER_0_19_109
*1310 FILLER_0_19_11
*1311 FILLER_0_19_113
*1312 FILLER_0_19_121
*1313 FILLER_0_19_144
*1314 FILLER_0_19_160
*1315 FILLER_0_19_184
*1316 FILLER_0_19_212
*1317 FILLER_0_19_225
*1318 FILLER_0_19_233
*1319 FILLER_0_19_246
*1320 FILLER_0_19_25
*1321 FILLER_0_19_255
*1322 FILLER_0_19_267
*1323 FILLER_0_19_279
*1324 FILLER_0_19_286
*1325 FILLER_0_19_298
*1326 FILLER_0_19_3
*1327 FILLER_0_19_311
*1328 FILLER_0_19_322
*1329 FILLER_0_19_334
*1330 FILLER_0_19_337
*1331 FILLER_0_19_347
*1332 FILLER_0_19_42
*1333 FILLER_0_19_54
*1334 FILLER_0_19_57
*1335 FILLER_0_19_69
*1336 FILLER_0_19_81
*1337 FILLER_0_19_93
*1338 FILLER_0_1_116
*1339 FILLER_0_1_124
*1340 FILLER_0_1_137
*1341 FILLER_0_1_145
*1342 FILLER_0_1_15
*1343 FILLER_0_1_166
*1344 FILLER_0_1_181
*1345 FILLER_0_1_209
*1346 FILLER_0_1_215
*1347 FILLER_0_1_219
*1348 FILLER_0_1_223
*1349 FILLER_0_1_240
*1350 FILLER_0_1_252
*1351 FILLER_0_1_264
*1352 FILLER_0_1_27
*1353 FILLER_0_1_276
*1354 FILLER_0_1_281
*1355 FILLER_0_1_293
*1356 FILLER_0_1_3
*1357 FILLER_0_1_305
*1358 FILLER_0_1_317
*1359 FILLER_0_1_329
*1360 FILLER_0_1_335
*1361 FILLER_0_1_337
*1362 FILLER_0_1_349
*1363 FILLER_0_1_39
*1364 FILLER_0_1_51
*1365 FILLER_0_1_55
*1366 FILLER_0_1_57
*1367 FILLER_0_1_69
*1368 FILLER_0_1_81
*1369 FILLER_0_1_95
*1370 FILLER_0_1_99
*1371 FILLER_0_20_103
*1372 FILLER_0_20_118
*1373 FILLER_0_20_130
*1374 FILLER_0_20_138
*1375 FILLER_0_20_146
*1376 FILLER_0_20_15
*1377 FILLER_0_20_154
*1378 FILLER_0_20_164
*1379 FILLER_0_20_176
*1380 FILLER_0_20_187
*1381 FILLER_0_20_195
*1382 FILLER_0_20_197
*1383 FILLER_0_20_205
*1384 FILLER_0_20_231
*1385 FILLER_0_20_246
*1386 FILLER_0_20_253
*1387 FILLER_0_20_265
*1388 FILLER_0_20_273
*1389 FILLER_0_20_283
*1390 FILLER_0_20_29
*1391 FILLER_0_20_295
*1392 FILLER_0_20_306
*1393 FILLER_0_20_309
*1394 FILLER_0_20_315
*1395 FILLER_0_20_336
*1396 FILLER_0_20_349
*1397 FILLER_0_20_82
*1398 FILLER_0_20_90
*1399 FILLER_0_21_106
*1400 FILLER_0_21_11
*1401 FILLER_0_21_113
*1402 FILLER_0_21_167
*1403 FILLER_0_21_169
*1404 FILLER_0_21_183
*1405 FILLER_0_21_191
*1406 FILLER_0_21_207
*1407 FILLER_0_21_219
*1408 FILLER_0_21_223
*1409 FILLER_0_21_235
*1410 FILLER_0_21_24
*1411 FILLER_0_21_246
*1412 FILLER_0_21_273
*1413 FILLER_0_21_279
*1414 FILLER_0_21_289
*1415 FILLER_0_21_293
*1416 FILLER_0_21_3
*1417 FILLER_0_21_310
*1418 FILLER_0_21_318
*1419 FILLER_0_21_325
*1420 FILLER_0_21_349
*1421 FILLER_0_21_36
*1422 FILLER_0_21_44
*1423 FILLER_0_21_57
*1424 FILLER_0_21_61
*1425 FILLER_0_21_69
*1426 FILLER_0_21_87
*1427 FILLER_0_21_93
*1428 FILLER_0_22_117
*1429 FILLER_0_22_130
*1430 FILLER_0_22_138
*1431 FILLER_0_22_141
*1432 FILLER_0_22_152
*1433 FILLER_0_22_160
*1434 FILLER_0_22_177
*1435 FILLER_0_22_187
*1436 FILLER_0_22_195
*1437 FILLER_0_22_197
*1438 FILLER_0_22_201
*1439 FILLER_0_22_205
*1440 FILLER_0_22_216
*1441 FILLER_0_22_22
*1442 FILLER_0_22_224
*1443 FILLER_0_22_238
*1444 FILLER_0_22_247
*1445 FILLER_0_22_251
*1446 FILLER_0_22_265
*1447 FILLER_0_22_279
*1448 FILLER_0_22_295
*1449 FILLER_0_22_3
*1450 FILLER_0_22_348
*1451 FILLER_0_22_41
*1452 FILLER_0_22_66
*1453 FILLER_0_22_9
*1454 FILLER_0_22_92
*1455 FILLER_0_23_104
*1456 FILLER_0_23_110
*1457 FILLER_0_23_113
*1458 FILLER_0_23_125
*1459 FILLER_0_23_157
*1460 FILLER_0_23_162
*1461 FILLER_0_23_169
*1462 FILLER_0_23_175
*1463 FILLER_0_23_219
*1464 FILLER_0_23_22
*1465 FILLER_0_23_223
*1466 FILLER_0_23_225
*1467 FILLER_0_23_231
*1468 FILLER_0_23_244
*1469 FILLER_0_23_266
*1470 FILLER_0_23_296
*1471 FILLER_0_23_3
*1472 FILLER_0_23_325
*1473 FILLER_0_23_333
*1474 FILLER_0_23_337
*1475 FILLER_0_23_349
*1476 FILLER_0_23_47
*1477 FILLER_0_23_51
*1478 FILLER_0_23_55
*1479 FILLER_0_23_57
*1480 FILLER_0_23_69
*1481 FILLER_0_23_81
*1482 FILLER_0_23_87
*1483 FILLER_0_23_9
*1484 FILLER_0_23_91
*1485 FILLER_0_23_96
*1486 FILLER_0_24_105
*1487 FILLER_0_24_12
*1488 FILLER_0_24_132
*1489 FILLER_0_24_139
*1490 FILLER_0_24_141
*1491 FILLER_0_24_145
*1492 FILLER_0_24_157
*1493 FILLER_0_24_16
*1494 FILLER_0_24_163
*1495 FILLER_0_24_172
*1496 FILLER_0_24_184
*1497 FILLER_0_24_197
*1498 FILLER_0_24_20
*1499 FILLER_0_24_205
*1500 FILLER_0_24_216
*1501 FILLER_0_24_237
*1502 FILLER_0_24_246
*1503 FILLER_0_24_253
*1504 FILLER_0_24_261
*1505 FILLER_0_24_267
*1506 FILLER_0_24_279
*1507 FILLER_0_24_291
*1508 FILLER_0_24_3
*1509 FILLER_0_24_303
*1510 FILLER_0_24_307
*1511 FILLER_0_24_309
*1512 FILLER_0_24_350
*1513 FILLER_0_24_44
*1514 FILLER_0_24_75
*1515 FILLER_0_25_102
*1516 FILLER_0_25_110
*1517 FILLER_0_25_122
*1518 FILLER_0_25_130