*SPEF "ieee 1481-1999"
*DESIGN "tt_um_ashleyjr_delay_line"
*DATE "11:11:11 Fri 11 11, 1111"
*VENDOR "OpenRCX"
*PROGRAM "Parallel Extraction"
*VERSION "1.0"
*DESIGN_FLOW "NAME_SCOPE LOCAL" "PIN_CAP NONE"
*DIVIDER /
*DELIMITER :
*BUS_DELIMITER []
*T_UNIT 1 NS
*C_UNIT 1 PF
*R_UNIT 1 OHM
*L_UNIT 1 HENRY

*NAME_MAP
*3 clk
*4 ena
*5 rst_n
*6 ui_in[0]
*7 ui_in[1]
*8 ui_in[2]
*9 ui_in[3]
*10 ui_in[4]
*11 ui_in[5]
*12 ui_in[6]
*13 ui_in[7]
*14 uio_in[0]
*15 uio_in[1]
*16 uio_in[2]
*17 uio_in[3]
*18 uio_in[4]
*19 uio_in[5]
*20 uio_in[6]
*21 uio_in[7]
*22 net20
*23 net21
*24 net22
*25 net23
*26 net24
*27 net25
*28 net26
*29 net27
*30 net28
*31 net29
*32 net30
*33 net31
*34 net32
*35 net33
*36 net34
*37 net35
*38 uo_out[0]
*39 net36
*40 net37
*41 net38
*42 net39
*43 net40
*44 net41
*45 net42
*46 _0000_
*47 _0001_
*48 _0002_
*49 _0003_
*50 _0004_
*51 _0005_
*52 _0006_
*53 _0007_
*54 _0008_
*55 _0009_
*56 _0010_
*57 _0011_
*58 _0012_
*59 _0013_
*60 _0014_
*61 _0015_
*62 _0016_
*63 _0017_
*64 _0018_
*65 _0019_
*66 _0020_
*67 _0021_
*68 _0022_
*69 _0023_
*70 _0024_
*71 _0025_
*72 _0026_
*73 _0027_
*74 _0028_
*75 _0029_
*76 _0030_
*77 _0031_
*78 _0032_
*79 _0033_
*80 _0034_
*81 _0035_
*82 _0036_
*83 _0037_
*84 _0038_
*85 _0039_
*86 _0040_
*87 _0041_
*88 _0042_
*89 _0043_
*90 _0044_
*91 _0045_
*92 _0046_
*93 _0047_
*94 _0048_
*95 _0049_
*96 _0050_
*97 _0051_
*98 _0052_
*99 _0053_
*100 _0054_
*101 _0055_
*102 _0056_
*103 _0057_
*104 _0058_
*105 _0059_
*106 _0060_
*107 _0061_
*108 _0062_
*109 _0063_
*110 _0064_
*111 _0065_
*112 _0066_
*113 _0067_
*114 _0068_
*115 _0069_
*116 _0070_
*117 _0071_
*118 _0072_
*119 _0073_
*120 _0074_
*121 _0075_
*122 _0076_
*123 _0077_
*124 _0078_
*125 _0079_
*126 _0080_
*127 _0081_
*128 _0082_
*129 _0083_
*130 _0084_
*131 _0085_
*132 _0086_
*133 _0087_
*134 _0088_
*135 _0089_
*136 _0090_
*137 _0091_
*138 _0092_
*139 _0093_
*140 _0094_
*141 _0095_
*142 _0096_
*143 _0097_
*144 _0098_
*145 _0099_
*146 _0100_
*147 _0101_
*148 _0102_
*149 _0103_
*150 _0104_
*151 _0105_
*152 _0106_
*153 _0107_
*154 _0108_
*155 _0109_
*156 _0110_
*157 _0111_
*158 _0112_
*159 _0113_
*160 _0114_
*161 _0115_
*162 _0116_
*163 _0117_
*164 _0118_
*165 _0119_
*166 _0120_
*167 _0121_
*168 _0122_
*169 _0123_
*170 _0124_
*171 _0125_
*172 _0126_
*173 _0127_
*174 _0128_
*175 _0129_
*176 _0130_
*177 _0131_
*178 _0132_
*179 _0133_
*180 _0134_
*181 _0135_
*182 _0136_
*183 _0137_
*184 _0138_
*185 _0139_
*186 _0140_
*187 _0141_
*188 _0142_
*189 _0143_
*190 _0144_
*191 _0145_
*192 _0146_
*193 _0147_
*194 _0148_
*195 _0149_
*196 _0150_
*197 _0151_
*198 _0152_
*199 _0153_
*200 _0154_
*201 _0155_
*202 _0156_
*203 _0157_
*204 _0158_
*205 _0159_
*206 _0160_
*207 _0161_
*208 _0162_
*209 _0163_
*210 _0164_
*211 _0165_
*212 _0166_
*213 _0167_
*214 _0168_
*215 _0169_
*216 _0170_
*217 _0171_
*218 _0172_
*219 _0173_
*220 _0174_
*221 _0175_
*222 _0176_
*223 _0177_
*224 _0178_
*225 _0179_
*226 _0180_
*227 _0181_
*228 _0182_
*229 _0183_
*230 _0184_
*231 _0185_
*232 _0186_
*233 _0187_
*234 _0188_
*235 _0189_
*236 _0190_
*237 _0191_
*238 _0192_
*239 _0193_
*240 _0194_
*241 _0195_
*242 _0196_
*243 _0197_
*244 _0198_
*245 _0199_
*246 _0200_
*247 _0201_
*248 _0202_
*249 _0203_
*250 _0204_
*251 _0205_
*252 _0206_
*253 _0207_
*254 _0208_
*255 _0209_
*256 _0210_
*257 _0211_
*258 _0212_
*259 _0213_
*260 _0214_
*261 _0215_
*262 _0216_
*263 _0217_
*264 _0218_
*265 _0219_
*266 _0220_
*267 _0221_
*268 _0222_
*269 _0223_
*270 _0224_
*271 _0225_
*272 _0226_
*273 _0227_
*274 _0228_
*275 _0229_
*276 _0230_
*277 _0231_
*278 _0232_
*279 _0233_
*280 _0234_
*281 _0235_
*282 _0236_
*283 _0237_
*284 _0238_
*285 _0239_
*286 _0240_
*287 _0241_
*288 _0242_
*289 _0243_
*290 _0244_
*291 _0245_
*292 _0246_
*293 _0247_
*294 _0248_
*295 _0249_
*296 _0250_
*297 _0251_
*298 _0252_
*299 _0253_
*300 _0254_
*301 _0255_
*302 _0256_
*303 _0257_
*304 _0258_
*305 _0259_
*306 _0260_
*307 _0261_
*308 _0262_
*309 _0263_
*310 _0264_
*311 _0265_
*312 _0266_
*313 _0267_
*314 _0268_
*315 _0269_
*316 _0270_
*317 _0271_
*318 _0272_
*319 _0273_
*320 _0274_
*321 _0275_
*322 _0276_
*323 _0277_
*324 _0278_
*325 _0279_
*326 _0280_
*327 _0281_
*328 _0282_
*329 _0283_
*330 _0284_
*331 _0285_
*332 _0286_
*333 _0287_
*334 _0288_
*335 _0289_
*336 _0290_
*337 _0291_
*338 _0292_
*339 _0293_
*340 _0294_
*341 _0295_
*342 _0296_
*343 _0297_
*344 _0298_
*345 _0299_
*346 _0300_
*347 _0301_
*348 _0302_
*349 _0303_
*350 _0304_
*351 _0305_
*352 _0306_
*353 _0307_
*354 _0308_
*355 _0309_
*356 _0310_
*357 _0311_
*358 _0312_
*359 _0313_
*360 _0314_
*361 _0315_
*362 _0316_
*363 _0317_
*364 _0318_
*365 _0319_
*366 _0320_
*367 _0321_
*368 _0322_
*369 _0323_
*370 _0324_
*371 _0325_
*372 _0326_
*373 _0327_
*374 _0328_
*375 _0329_
*376 _0330_
*377 _0331_
*378 _0332_
*379 _0333_
*380 _0334_
*381 _0335_
*382 _0336_
*383 _0337_
*384 _0338_
*385 _0339_
*386 _0340_
*387 _0341_
*388 _0342_
*389 _0343_
*390 _0344_
*391 _0345_
*392 _0346_
*393 _0347_
*394 _0348_
*395 _0349_
*396 _0350_
*397 _0351_
*398 _0352_
*399 _0353_
*400 _0354_
*401 _0355_
*402 _0356_
*403 _0357_
*404 _0358_
*405 _0359_
*406 _0360_
*407 _0361_
*408 _0362_
*409 _0363_
*410 _0364_
*411 _0365_
*412 _0366_
*413 _0367_
*414 _0368_
*415 _0369_
*416 _0370_
*417 _0371_
*418 _0372_
*419 _0373_
*420 _0374_
*421 _0375_
*422 _0376_
*423 _0377_
*424 _0378_
*425 _0379_
*426 _0380_
*427 _0381_
*428 _0382_
*429 _0383_
*430 _0384_
*431 _0385_
*432 _0386_
*433 _0387_
*434 _0388_
*435 _0389_
*436 _0390_
*437 _0391_
*438 _0392_
*439 _0393_
*440 _0394_
*441 _0395_
*442 _0396_
*443 _0397_
*444 _0398_
*445 _0399_
*446 _0400_
*447 _0401_
*448 _0402_
*449 _0403_
*450 _0404_
*451 _0405_
*452 _0406_
*453 _0407_
*454 _0408_
*455 _0409_
*456 _0410_
*457 _0411_
*458 _0412_
*459 _0413_
*460 _0414_
*461 _0415_
*462 _0416_
*463 _0417_
*464 _0418_
*465 _0419_
*466 _0420_
*467 _0421_
*468 _0422_
*469 _0423_
*470 _0424_
*471 _0425_
*472 _0426_
*473 _0427_
*474 _0428_
*475 _0429_
*476 _0430_
*477 _0431_
*478 _0432_
*479 _0433_
*480 _0434_
*481 _0435_
*482 _0436_
*483 _0437_
*484 _0438_
*485 _0439_
*486 _0440_
*487 _0441_
*488 _0442_
*489 _0443_
*490 _0444_
*491 _0445_
*492 _0446_
*493 _0447_
*494 _0448_
*495 _0449_
*496 _0450_
*497 _0451_
*498 _0452_
*499 _0453_
*500 _0454_
*501 _0455_
*502 _0456_
*503 _0457_
*504 _0458_
*505 _0459_
*506 _0460_
*507 _0461_
*508 _0462_
*509 _0463_
*510 _0464_
*511 _0465_
*512 _0466_
*513 _0467_
*514 _0468_
*515 clknet_0_clk
*516 clknet_4_0_0_clk
*517 clknet_4_10_0_clk
*518 clknet_4_11_0_clk
*519 clknet_4_12_0_clk
*520 clknet_4_13_0_clk
*521 clknet_4_14_0_clk
*522 clknet_4_15_0_clk
*523 clknet_4_1_0_clk
*524 clknet_4_2_0_clk
*525 clknet_4_3_0_clk
*526 clknet_4_4_0_clk
*527 clknet_4_5_0_clk
*528 clknet_4_6_0_clk
*529 clknet_4_7_0_clk
*530 clknet_4_8_0_clk
*531 clknet_4_9_0_clk
*532 net1
*533 net10
*534 net11
*535 net12
*536 net13
*537 net14
*538 net15
*539 net16
*540 net17
*541 net18
*542 net19
*543 net2
*544 net3
*545 net4
*546 net43
*547 net44
*548 net45
*549 net46
*550 net47
*551 net48
*552 net49
*553 net5
*554 net50
*555 net51
*556 net52
*557 net53
*558 net54
*559 net55
*560 net56
*561 net57
*562 net58
*563 net59
*564 net6
*565 net60
*566 net61
*567 net62
*568 net63
*569 net64
*570 net65
*571 net66
*572 net67
*573 net68
*574 net69
*575 net7
*576 net70
*577 net71
*578 net72
*579 net73
*580 net74
*581 net75
*582 net76
*583 net77
*584 net78
*585 net79
*586 net8
*587 net80
*588 net81
*589 net82
*590 net83
*591 net84
*592 net85
*593 net86
*594 net87
*595 net88
*596 net89
*597 net9
*598 net90
*599 net91
*600 net92
*601 net93
*602 net94
*603 u_delay_line\.bulk_0
*604 u_delay_line\.bulk_1
*605 u_delay_line\.bulk_10
*606 u_delay_line\.bulk_11
*607 u_delay_line\.bulk_12
*608 u_delay_line\.bulk_13
*609 u_delay_line\.bulk_14
*610 u_delay_line\.bulk_15
*611 u_delay_line\.bulk_16
*612 u_delay_line\.bulk_17
*613 u_delay_line\.bulk_18
*614 u_delay_line\.bulk_19
*615 u_delay_line\.bulk_2
*616 u_delay_line\.bulk_20
*617 u_delay_line\.bulk_3
*618 u_delay_line\.bulk_4
*619 u_delay_line\.bulk_5
*620 u_delay_line\.bulk_6
*621 u_delay_line\.bulk_7
*622 u_delay_line\.bulk_8
*623 u_delay_line\.bulk_9
*624 u_delay_line\.data_0
*625 u_delay_line\.data_1
*626 u_delay_line\.data_10
*627 u_delay_line\.data_11
*628 u_delay_line\.data_12
*629 u_delay_line\.data_13
*630 u_delay_line\.data_14
*631 u_delay_line\.data_15
*632 u_delay_line\.data_16
*633 u_delay_line\.data_17
*634 u_delay_line\.data_18
*635 u_delay_line\.data_19
*636 u_delay_line\.data_2
*637 u_delay_line\.data_20
*638 u_delay_line\.data_21
*639 u_delay_line\.data_22
*640 u_delay_line\.data_23
*641 u_delay_line\.data_24
*642 u_delay_line\.data_25
*643 u_delay_line\.data_26
*644 u_delay_line\.data_27
*645 u_delay_line\.data_28
*646 u_delay_line\.data_29
*647 u_delay_line\.data_3
*648 u_delay_line\.data_30
*649 u_delay_line\.data_31
*650 u_delay_line\.data_4
*651 u_delay_line\.data_5
*652 u_delay_line\.data_6
*653 u_delay_line\.data_7
*654 u_delay_line\.data_8
*655 u_delay_line\.data_9
*656 u_delay_line\.dl_0
*657 u_delay_line\.dl_1
*658 u_delay_line\.dl_10
*659 u_delay_line\.dl_11
*660 u_delay_line\.dl_12
*661 u_delay_line\.dl_13
*662 u_delay_line\.dl_14
*663 u_delay_line\.dl_15
*664 u_delay_line\.dl_16
*665 u_delay_line\.dl_17
*666 u_delay_line\.dl_18
*667 u_delay_line\.dl_19
*668 u_delay_line\.dl_2
*669 u_delay_line\.dl_20
*670 u_delay_line\.dl_21
*671 u_delay_line\.dl_22
*672 u_delay_line\.dl_23
*673 u_delay_line\.dl_24
*674 u_delay_line\.dl_25
*675 u_delay_line\.dl_26
*676 u_delay_line\.dl_27
*677 u_delay_line\.dl_28
*678 u_delay_line\.dl_29
*679 u_delay_line\.dl_3
*680 u_delay_line\.dl_30
*681 u_delay_line\.dl_31
*682 u_delay_line\.dl_32
*683 u_delay_line\.dl_4
*684 u_delay_line\.dl_5
*685 u_delay_line\.dl_6
*686 u_delay_line\.dl_7
*687 u_delay_line\.dl_8
*688 u_delay_line\.dl_9
*689 u_delay_line\.start_d
*690 u_delay_line\.start_q
*691 u_delay_line\.u_bulk_0\.dl_0
*692 u_delay_line\.u_bulk_0\.dl_1
*693 u_delay_line\.u_bulk_0\.dl_10
*694 u_delay_line\.u_bulk_0\.dl_11
*695 u_delay_line\.u_bulk_0\.dl_12
*696 u_delay_line\.u_bulk_0\.dl_13
*697 u_delay_line\.u_bulk_0\.dl_14
*698 u_delay_line\.u_bulk_0\.dl_2
*699 u_delay_line\.u_bulk_0\.dl_3
*700 u_delay_line\.u_bulk_0\.dl_4
*701 u_delay_line\.u_bulk_0\.dl_5
*702 u_delay_line\.u_bulk_0\.dl_6
*703 u_delay_line\.u_bulk_0\.dl_7
*704 u_delay_line\.u_bulk_0\.dl_8
*705 u_delay_line\.u_bulk_0\.dl_9
*706 u_delay_line\.u_bulk_1\.dl_0
*707 u_delay_line\.u_bulk_1\.dl_1
*708 u_delay_line\.u_bulk_1\.dl_10
*709 u_delay_line\.u_bulk_1\.dl_11
*710 u_delay_line\.u_bulk_1\.dl_12
*711 u_delay_line\.u_bulk_1\.dl_13
*712 u_delay_line\.u_bulk_1\.dl_14
*713 u_delay_line\.u_bulk_1\.dl_2
*714 u_delay_line\.u_bulk_1\.dl_3
*715 u_delay_line\.u_bulk_1\.dl_4
*716 u_delay_line\.u_bulk_1\.dl_5
*717 u_delay_line\.u_bulk_1\.dl_6
*718 u_delay_line\.u_bulk_1\.dl_7
*719 u_delay_line\.u_bulk_1\.dl_8
*720 u_delay_line\.u_bulk_1\.dl_9
*721 u_delay_line\.u_bulk_10\.dl_0
*722 u_delay_line\.u_bulk_10\.dl_1
*723 u_delay_line\.u_bulk_10\.dl_10
*724 u_delay_line\.u_bulk_10\.dl_11
*725 u_delay_line\.u_bulk_10\.dl_12
*726 u_delay_line\.u_bulk_10\.dl_13
*727 u_delay_line\.u_bulk_10\.dl_14
*728 u_delay_line\.u_bulk_10\.dl_2
*729 u_delay_line\.u_bulk_10\.dl_3
*730 u_delay_line\.u_bulk_10\.dl_4
*731 u_delay_line\.u_bulk_10\.dl_5
*732 u_delay_line\.u_bulk_10\.dl_6
*733 u_delay_line\.u_bulk_10\.dl_7
*734 u_delay_line\.u_bulk_10\.dl_8
*735 u_delay_line\.u_bulk_10\.dl_9
*736 u_delay_line\.u_bulk_11\.dl_0
*737 u_delay_line\.u_bulk_11\.dl_1
*738 u_delay_line\.u_bulk_11\.dl_10
*739 u_delay_line\.u_bulk_11\.dl_11
*740 u_delay_line\.u_bulk_11\.dl_12
*741 u_delay_line\.u_bulk_11\.dl_13
*742 u_delay_line\.u_bulk_11\.dl_14
*743 u_delay_line\.u_bulk_11\.dl_2
*744 u_delay_line\.u_bulk_11\.dl_3
*745 u_delay_line\.u_bulk_11\.dl_4
*746 u_delay_line\.u_bulk_11\.dl_5
*747 u_delay_line\.u_bulk_11\.dl_6
*748 u_delay_line\.u_bulk_11\.dl_7
*749 u_delay_line\.u_bulk_11\.dl_8
*750 u_delay_line\.u_bulk_11\.dl_9
*751 u_delay_line\.u_bulk_12\.dl_0
*752 u_delay_line\.u_bulk_12\.dl_1
*753 u_delay_line\.u_bulk_12\.dl_10
*754 u_delay_line\.u_bulk_12\.dl_11
*755 u_delay_line\.u_bulk_12\.dl_12
*756 u_delay_line\.u_bulk_12\.dl_13
*757 u_delay_line\.u_bulk_12\.dl_14
*758 u_delay_line\.u_bulk_12\.dl_2
*759 u_delay_line\.u_bulk_12\.dl_3
*760 u_delay_line\.u_bulk_12\.dl_4
*761 u_delay_line\.u_bulk_12\.dl_5
*762 u_delay_line\.u_bulk_12\.dl_6
*763 u_delay_line\.u_bulk_12\.dl_7
*764 u_delay_line\.u_bulk_12\.dl_8
*765 u_delay_line\.u_bulk_12\.dl_9
*766 u_delay_line\.u_bulk_13\.dl_0
*767 u_delay_line\.u_bulk_13\.dl_1
*768 u_delay_line\.u_bulk_13\.dl_10
*769 u_delay_line\.u_bulk_13\.dl_11
*770 u_delay_line\.u_bulk_13\.dl_12
*771 u_delay_line\.u_bulk_13\.dl_13
*772 u_delay_line\.u_bulk_13\.dl_14
*773 u_delay_line\.u_bulk_13\.dl_2
*774 u_delay_line\.u_bulk_13\.dl_3
*775 u_delay_line\.u_bulk_13\.dl_4
*776 u_delay_line\.u_bulk_13\.dl_5
*777 u_delay_line\.u_bulk_13\.dl_6
*778 u_delay_line\.u_bulk_13\.dl_7
*779 u_delay_line\.u_bulk_13\.dl_8
*780 u_delay_line\.u_bulk_13\.dl_9
*781 u_delay_line\.u_bulk_14\.dl_0
*782 u_delay_line\.u_bulk_14\.dl_1
*783 u_delay_line\.u_bulk_14\.dl_10
*784 u_delay_line\.u_bulk_14\.dl_11
*785 u_delay_line\.u_bulk_14\.dl_12
*786 u_delay_line\.u_bulk_14\.dl_13
*787 u_delay_line\.u_bulk_14\.dl_14
*788 u_delay_line\.u_bulk_14\.dl_2
*789 u_delay_line\.u_bulk_14\.dl_3
*790 u_delay_line\.u_bulk_14\.dl_4
*791 u_delay_line\.u_bulk_14\.dl_5
*792 u_delay_line\.u_bulk_14\.dl_6
*793 u_delay_line\.u_bulk_14\.dl_7
*794 u_delay_line\.u_bulk_14\.dl_8
*795 u_delay_line\.u_bulk_14\.dl_9
*796 u_delay_line\.u_bulk_15\.dl_0
*797 u_delay_line\.u_bulk_15\.dl_1
*798 u_delay_line\.u_bulk_15\.dl_10
*799 u_delay_line\.u_bulk_15\.dl_11
*800 u_delay_line\.u_bulk_15\.dl_12
*801 u_delay_line\.u_bulk_15\.dl_13
*802 u_delay_line\.u_bulk_15\.dl_14
*803 u_delay_line\.u_bulk_15\.dl_2
*804 u_delay_line\.u_bulk_15\.dl_3
*805 u_delay_line\.u_bulk_15\.dl_4
*806 u_delay_line\.u_bulk_15\.dl_5
*807 u_delay_line\.u_bulk_15\.dl_6
*808 u_delay_line\.u_bulk_15\.dl_7
*809 u_delay_line\.u_bulk_15\.dl_8
*810 u_delay_line\.u_bulk_15\.dl_9
*811 u_delay_line\.u_bulk_16\.dl_0
*812 u_delay_line\.u_bulk_16\.dl_1
*813 u_delay_line\.u_bulk_16\.dl_10
*814 u_delay_line\.u_bulk_16\.dl_11
*815 u_delay_line\.u_bulk_16\.dl_12
*816 u_delay_line\.u_bulk_16\.dl_13
*817 u_delay_line\.u_bulk_16\.dl_14
*818 u_delay_line\.u_bulk_16\.dl_2
*819 u_delay_line\.u_bulk_16\.dl_3
*820 u_delay_line\.u_bulk_16\.dl_4
*821 u_delay_line\.u_bulk_16\.dl_5
*822 u_delay_line\.u_bulk_16\.dl_6
*823 u_delay_line\.u_bulk_16\.dl_7
*824 u_delay_line\.u_bulk_16\.dl_8
*825 u_delay_line\.u_bulk_16\.dl_9
*826 u_delay_line\.u_bulk_17\.dl_0
*827 u_delay_line\.u_bulk_17\.dl_1
*828 u_delay_line\.u_bulk_17\.dl_10
*829 u_delay_line\.u_bulk_17\.dl_11
*830 u_delay_line\.u_bulk_17\.dl_12
*831 u_delay_line\.u_bulk_17\.dl_13
*832 u_delay_line\.u_bulk_17\.dl_14
*833 u_delay_line\.u_bulk_17\.dl_2
*834 u_delay_line\.u_bulk_17\.dl_3
*835 u_delay_line\.u_bulk_17\.dl_4
*836 u_delay_line\.u_bulk_17\.dl_5
*837 u_delay_line\.u_bulk_17\.dl_6
*838 u_delay_line\.u_bulk_17\.dl_7
*839 u_delay_line\.u_bulk_17\.dl_8
*840 u_delay_line\.u_bulk_17\.dl_9
*841 u_delay_line\.u_bulk_18\.dl_0
*842 u_delay_line\.u_bulk_18\.dl_1
*843 u_delay_line\.u_bulk_18\.dl_10
*844 u_delay_line\.u_bulk_18\.dl_11
*845 u_delay_line\.u_bulk_18\.dl_12
*846 u_delay_line\.u_bulk_18\.dl_13
*847 u_delay_line\.u_bulk_18\.dl_14
*848 u_delay_line\.u_bulk_18\.dl_2
*849 u_delay_line\.u_bulk_18\.dl_3
*850 u_delay_line\.u_bulk_18\.dl_4
*851 u_delay_line\.u_bulk_18\.dl_5
*852 u_delay_line\.u_bulk_18\.dl_6
*853 u_delay_line\.u_bulk_18\.dl_7
*854 u_delay_line\.u_bulk_18\.dl_8
*855 u_delay_line\.u_bulk_18\.dl_9
*856 u_delay_line\.u_bulk_19\.dl_0
*857 u_delay_line\.u_bulk_19\.dl_1
*858 u_delay_line\.u_bulk_19\.dl_10
*859 u_delay_line\.u_bulk_19\.dl_11
*860 u_delay_line\.u_bulk_19\.dl_12
*861 u_delay_line\.u_bulk_19\.dl_13
*862 u_delay_line\.u_bulk_19\.dl_14
*863 u_delay_line\.u_bulk_19\.dl_2
*864 u_delay_line\.u_bulk_19\.dl_3
*865 u_delay_line\.u_bulk_19\.dl_4
*866 u_delay_line\.u_bulk_19\.dl_5
*867 u_delay_line\.u_bulk_19\.dl_6
*868 u_delay_line\.u_bulk_19\.dl_7
*869 u_delay_line\.u_bulk_19\.dl_8
*870 u_delay_line\.u_bulk_19\.dl_9
*871 u_delay_line\.u_bulk_2\.dl_0
*872 u_delay_line\.u_bulk_2\.dl_1
*873 u_delay_line\.u_bulk_2\.dl_10
*874 u_delay_line\.u_bulk_2\.dl_11
*875 u_delay_line\.u_bulk_2\.dl_12
*876 u_delay_line\.u_bulk_2\.dl_13
*877 u_delay_line\.u_bulk_2\.dl_14
*878 u_delay_line\.u_bulk_2\.dl_2
*879 u_delay_line\.u_bulk_2\.dl_3
*880 u_delay_line\.u_bulk_2\.dl_4
*881 u_delay_line\.u_bulk_2\.dl_5
*882 u_delay_line\.u_bulk_2\.dl_6
*883 u_delay_line\.u_bulk_2\.dl_7
*884 u_delay_line\.u_bulk_2\.dl_8
*885 u_delay_line\.u_bulk_2\.dl_9
*886 u_delay_line\.u_bulk_20\.dl_0
*887 u_delay_line\.u_bulk_20\.dl_1
*888 u_delay_line\.u_bulk_20\.dl_10
*889 u_delay_line\.u_bulk_20\.dl_11
*890 u_delay_line\.u_bulk_20\.dl_12
*891 u_delay_line\.u_bulk_20\.dl_13
*892 u_delay_line\.u_bulk_20\.dl_14
*893 u_delay_line\.u_bulk_20\.dl_2
*894 u_delay_line\.u_bulk_20\.dl_3
*895 u_delay_line\.u_bulk_20\.dl_4
*896 u_delay_line\.u_bulk_20\.dl_5
*897 u_delay_line\.u_bulk_20\.dl_6
*898 u_delay_line\.u_bulk_20\.dl_7
*899 u_delay_line\.u_bulk_20\.dl_8
*900 u_delay_line\.u_bulk_20\.dl_9
*901 u_delay_line\.u_bulk_21\.dl_0
*902 u_delay_line\.u_bulk_21\.dl_1
*903 u_delay_line\.u_bulk_21\.dl_10
*904 u_delay_line\.u_bulk_21\.dl_11
*905 u_delay_line\.u_bulk_21\.dl_12
*906 u_delay_line\.u_bulk_21\.dl_13
*907 u_delay_line\.u_bulk_21\.dl_14
*908 u_delay_line\.u_bulk_21\.dl_2
*909 u_delay_line\.u_bulk_21\.dl_3
*910 u_delay_line\.u_bulk_21\.dl_4
*911 u_delay_line\.u_bulk_21\.dl_5
*912 u_delay_line\.u_bulk_21\.dl_6
*913 u_delay_line\.u_bulk_21\.dl_7
*914 u_delay_line\.u_bulk_21\.dl_8
*915 u_delay_line\.u_bulk_21\.dl_9
*916 u_delay_line\.u_bulk_3\.dl_0
*917 u_delay_line\.u_bulk_3\.dl_1
*918 u_delay_line\.u_bulk_3\.dl_10
*919 u_delay_line\.u_bulk_3\.dl_11
*920 u_delay_line\.u_bulk_3\.dl_12
*921 u_delay_line\.u_bulk_3\.dl_13
*922 u_delay_line\.u_bulk_3\.dl_14
*923 u_delay_line\.u_bulk_3\.dl_2
*924 u_delay_line\.u_bulk_3\.dl_3
*925 u_delay_line\.u_bulk_3\.dl_4
*926 u_delay_line\.u_bulk_3\.dl_5
*927 u_delay_line\.u_bulk_3\.dl_6
*928 u_delay_line\.u_bulk_3\.dl_7
*929 u_delay_line\.u_bulk_3\.dl_8
*930 u_delay_line\.u_bulk_3\.dl_9
*931 u_delay_line\.u_bulk_4\.dl_0
*932 u_delay_line\.u_bulk_4\.dl_1
*933 u_delay_line\.u_bulk_4\.dl_10
*934 u_delay_line\.u_bulk_4\.dl_11
*935 u_delay_line\.u_bulk_4\.dl_12
*936 u_delay_line\.u_bulk_4\.dl_13
*937 u_delay_line\.u_bulk_4\.dl_14
*938 u_delay_line\.u_bulk_4\.dl_2
*939 u_delay_line\.u_bulk_4\.dl_3
*940 u_delay_line\.u_bulk_4\.dl_4
*941 u_delay_line\.u_bulk_4\.dl_5
*942 u_delay_line\.u_bulk_4\.dl_6
*943 u_delay_line\.u_bulk_4\.dl_7
*944 u_delay_line\.u_bulk_4\.dl_8
*945 u_delay_line\.u_bulk_4\.dl_9
*946 u_delay_line\.u_bulk_5\.dl_0
*947 u_delay_line\.u_bulk_5\.dl_1
*948 u_delay_line\.u_bulk_5\.dl_10
*949 u_delay_line\.u_bulk_5\.dl_11
*950 u_delay_line\.u_bulk_5\.dl_12
*951 u_delay_line\.u_bulk_5\.dl_13
*952 u_delay_line\.u_bulk_5\.dl_14
*953 u_delay_line\.u_bulk_5\.dl_2
*954 u_delay_line\.u_bulk_5\.dl_3
*955 u_delay_line\.u_bulk_5\.dl_4
*956 u_delay_line\.u_bulk_5\.dl_5
*957 u_delay_line\.u_bulk_5\.dl_6
*958 u_delay_line\.u_bulk_5\.dl_7
*959 u_delay_line\.u_bulk_5\.dl_8
*960 u_delay_line\.u_bulk_5\.dl_9
*961 u_delay_line\.u_bulk_6\.dl_0
*962 u_delay_line\.u_bulk_6\.dl_1
*963 u_delay_line\.u_bulk_6\.dl_10
*964 u_delay_line\.u_bulk_6\.dl_11
*965 u_delay_line\.u_bulk_6\.dl_12
*966 u_delay_line\.u_bulk_6\.dl_13
*967 u_delay_line\.u_bulk_6\.dl_14
*968 u_delay_line\.u_bulk_6\.dl_2
*969 u_delay_line\.u_bulk_6\.dl_3
*970 u_delay_line\.u_bulk_6\.dl_4
*971 u_delay_line\.u_bulk_6\.dl_5
*972 u_delay_line\.u_bulk_6\.dl_6
*973 u_delay_line\.u_bulk_6\.dl_7
*974 u_delay_line\.u_bulk_6\.dl_8
*975 u_delay_line\.u_bulk_6\.dl_9
*976 u_delay_line\.u_bulk_7\.dl_0
*977 u_delay_line\.u_bulk_7\.dl_1
*978 u_delay_line\.u_bulk_7\.dl_10
*979 u_delay_line\.u_bulk_7\.dl_11
*980 u_delay_line\.u_bulk_7\.dl_12
*981 u_delay_line\.u_bulk_7\.dl_13
*982 u_delay_line\.u_bulk_7\.dl_14
*983 u_delay_line\.u_bulk_7\.dl_2
*984 u_delay_line\.u_bulk_7\.dl_3
*985 u_delay_line\.u_bulk_7\.dl_4
*986 u_delay_line\.u_bulk_7\.dl_5
*987 u_delay_line\.u_bulk_7\.dl_6
*988 u_delay_line\.u_bulk_7\.dl_7
*989 u_delay_line\.u_bulk_7\.dl_8
*990 u_delay_line\.u_bulk_7\.dl_9
*991 u_delay_line\.u_bulk_8\.dl_0
*992 u_delay_line\.u_bulk_8\.dl_1
*993 u_delay_line\.u_bulk_8\.dl_10
*994 u_delay_line\.u_bulk_8\.dl_11
*995 u_delay_line\.u_bulk_8\.dl_12
*996 u_delay_line\.u_bulk_8\.dl_13
*997 u_delay_line\.u_bulk_8\.dl_14
*998 u_delay_line\.u_bulk_8\.dl_2
*999 u_delay_line\.u_bulk_8\.dl_3
*1000 u_delay_line\.u_bulk_8\.dl_4
*1001 u_delay_line\.u_bulk_8\.dl_5
*1002 u_delay_line\.u_bulk_8\.dl_6
*1003 u_delay_line\.u_bulk_8\.dl_7
*1004 u_delay_line\.u_bulk_8\.dl_8
*1005 u_delay_line\.u_bulk_8\.dl_9
*1006 u_delay_line\.u_bulk_9\.dl_0
*1007 u_delay_line\.u_bulk_9\.dl_1
*1008 u_delay_line\.u_bulk_9\.dl_10
*1009 u_delay_line\.u_bulk_9\.dl_11
*1010 u_delay_line\.u_bulk_9\.dl_12
*1011 u_delay_line\.u_bulk_9\.dl_13
*1012 u_delay_line\.u_bulk_9\.dl_14
*1013 u_delay_line\.u_bulk_9\.dl_2
*1014 u_delay_line\.u_bulk_9\.dl_3
*1015 u_delay_line\.u_bulk_9\.dl_4
*1016 u_delay_line\.u_bulk_9\.dl_5
*1017 u_delay_line\.u_bulk_9\.dl_6
*1018 u_delay_line\.u_bulk_9\.dl_7
*1019 u_delay_line\.u_bulk_9\.dl_8
*1020 u_delay_line\.u_bulk_9\.dl_9
*1021 u_delay_line\.u_dl_0\.dl_0
*1022 u_delay_line\.u_dl_0\.dl_1
*1023 u_delay_line\.u_dl_0\.dl_10
*1024 u_delay_line\.u_dl_0\.dl_2
*1025 u_delay_line\.u_dl_0\.dl_3
*1026 u_delay_line\.u_dl_0\.dl_4
*1027 u_delay_line\.u_dl_0\.dl_5
*1028 u_delay_line\.u_dl_0\.dl_6
*1029 u_delay_line\.u_dl_0\.dl_7
*1030 u_delay_line\.u_dl_0\.dl_8
*1031 u_delay_line\.u_dl_0\.dl_9
*1032 u_delay_line\.u_dl_1\.dl_0
*1033 u_delay_line\.u_dl_1\.dl_1
*1034 u_delay_line\.u_dl_1\.dl_10
*1035 u_delay_line\.u_dl_1\.dl_2
*1036 u_delay_line\.u_dl_1\.dl_3
*1037 u_delay_line\.u_dl_1\.dl_4
*1038 u_delay_line\.u_dl_1\.dl_5
*1039 u_delay_line\.u_dl_1\.dl_6
*1040 u_delay_line\.u_dl_1\.dl_7
*1041 u_delay_line\.u_dl_1\.dl_8
*1042 u_delay_line\.u_dl_1\.dl_9
*1043 u_delay_line\.u_dl_10\.dl_0
*1044 u_delay_line\.u_dl_10\.dl_1
*1045 u_delay_line\.u_dl_10\.dl_10
*1046 u_delay_line\.u_dl_10\.dl_2
*1047 u_delay_line\.u_dl_10\.dl_3
*1048 u_delay_line\.u_dl_10\.dl_4
*1049 u_delay_line\.u_dl_10\.dl_5
*1050 u_delay_line\.u_dl_10\.dl_6
*1051 u_delay_line\.u_dl_10\.dl_7
*1052 u_delay_line\.u_dl_10\.dl_8
*1053 u_delay_line\.u_dl_10\.dl_9
*1054 u_delay_line\.u_dl_11\.dl_0
*1055 u_delay_line\.u_dl_11\.dl_1
*1056 u_delay_line\.u_dl_11\.dl_10
*1057 u_delay_line\.u_dl_11\.dl_2
*1058 u_delay_line\.u_dl_11\.dl_3
*1059 u_delay_line\.u_dl_11\.dl_4
*1060 u_delay_line\.u_dl_11\.dl_5
*1061 u_delay_line\.u_dl_11\.dl_6
*1062 u_delay_line\.u_dl_11\.dl_7
*1063 u_delay_line\.u_dl_11\.dl_8
*1064 u_delay_line\.u_dl_11\.dl_9
*1065 u_delay_line\.u_dl_12\.dl_0
*1066 u_delay_line\.u_dl_12\.dl_1
*1067 u_delay_line\.u_dl_12\.dl_10
*1068 u_delay_line\.u_dl_12\.dl_2
*1069 u_delay_line\.u_dl_12\.dl_3
*1070 u_delay_line\.u_dl_12\.dl_4
*1071 u_delay_line\.u_dl_12\.dl_5
*1072 u_delay_line\.u_dl_12\.dl_6
*1073 u_delay_line\.u_dl_12\.dl_7
*1074 u_delay_line\.u_dl_12\.dl_8
*1075 u_delay_line\.u_dl_12\.dl_9
*1076 u_delay_line\.u_dl_13\.dl_0
*1077 u_delay_line\.u_dl_13\.dl_1
*1078 u_delay_line\.u_dl_13\.dl_10
*1079 u_delay_line\.u_dl_13\.dl_2
*1080 u_delay_line\.u_dl_13\.dl_3
*1081 u_delay_line\.u_dl_13\.dl_4
*1082 u_delay_line\.u_dl_13\.dl_5
*1083 u_delay_line\.u_dl_13\.dl_6
*1084 u_delay_line\.u_dl_13\.dl_7
*1085 u_delay_line\.u_dl_13\.dl_8
*1086 u_delay_line\.u_dl_13\.dl_9
*1087 u_delay_line\.u_dl_14\.dl_0
*1088 u_delay_line\.u_dl_14\.dl_1
*1089 u_delay_line\.u_dl_14\.dl_10
*1090 u_delay_line\.u_dl_14\.dl_2
*1091 u_delay_line\.u_dl_14\.dl_3
*1092 u_delay_line\.u_dl_14\.dl_4
*1093 u_delay_line\.u_dl_14\.dl_5
*1094 u_delay_line\.u_dl_14\.dl_6
*1095 u_delay_line\.u_dl_14\.dl_7
*1096 u_delay_line\.u_dl_14\.dl_8
*1097 u_delay_line\.u_dl_14\.dl_9
*1098 u_delay_line\.u_dl_15\.dl_0
*1099 u_delay_line\.u_dl_15\.dl_1
*1100 u_delay_line\.u_dl_15\.dl_10
*1101 u_delay_line\.u_dl_15\.dl_2
*1102 u_delay_line\.u_dl_15\.dl_3
*1103 u_delay_line\.u_dl_15\.dl_4
*1104 u_delay_line\.u_dl_15\.dl_5
*1105 u_delay_line\.u_dl_15\.dl_6
*1106 u_delay_line\.u_dl_15\.dl_7
*1107 u_delay_line\.u_dl_15\.dl_8
*1108 u_delay_line\.u_dl_15\.dl_9
*1109 u_delay_line\.u_dl_16\.dl_0
*1110 u_delay_line\.u_dl_16\.dl_1
*1111 u_delay_line\.u_dl_16\.dl_10
*1112 u_delay_line\.u_dl_16\.dl_2
*1113 u_delay_line\.u_dl_16\.dl_3
*1114 u_delay_line\.u_dl_16\.dl_4
*1115 u_delay_line\.u_dl_16\.dl_5
*1116 u_delay_line\.u_dl_16\.dl_6
*1117 u_delay_line\.u_dl_16\.dl_7
*1118 u_delay_line\.u_dl_16\.dl_8
*1119 u_delay_line\.u_dl_16\.dl_9
*1120 u_delay_line\.u_dl_17\.dl_0
*1121 u_delay_line\.u_dl_17\.dl_1
*1122 u_delay_line\.u_dl_17\.dl_10
*1123 u_delay_line\.u_dl_17\.dl_2
*1124 u_delay_line\.u_dl_17\.dl_3
*1125 u_delay_line\.u_dl_17\.dl_4
*1126 u_delay_line\.u_dl_17\.dl_5
*1127 u_delay_line\.u_dl_17\.dl_6
*1128 u_delay_line\.u_dl_17\.dl_7
*1129 u_delay_line\.u_dl_17\.dl_8
*1130 u_delay_line\.u_dl_17\.dl_9
*1131 u_delay_line\.u_dl_18\.dl_0
*1132 u_delay_line\.u_dl_18\.dl_1
*1133 u_delay_line\.u_dl_18\.dl_10
*1134 u_delay_line\.u_dl_18\.dl_2
*1135 u_delay_line\.u_dl_18\.dl_3
*1136 u_delay_line\.u_dl_18\.dl_4
*1137 u_delay_line\.u_dl_18\.dl_5
*1138 u_delay_line\.u_dl_18\.dl_6
*1139 u_delay_line\.u_dl_18\.dl_7
*1140 u_delay_line\.u_dl_18\.dl_8
*1141 u_delay_line\.u_dl_18\.dl_9
*1142 u_delay_line\.u_dl_19\.dl_0
*1143 u_delay_line\.u_dl_19\.dl_1
*1144 u_delay_line\.u_dl_19\.dl_10
*1145 u_delay_line\.u_dl_19\.dl_2
*1146 u_delay_line\.u_dl_19\.dl_3
*1147 u_delay_line\.u_dl_19\.dl_4
*1148 u_delay_line\.u_dl_19\.dl_5
*1149 u_delay_line\.u_dl_19\.dl_6
*1150 u_delay_line\.u_dl_19\.dl_7
*1151 u_delay_line\.u_dl_19\.dl_8
*1152 u_delay_line\.u_dl_19\.dl_9
*1153 u_delay_line\.u_dl_2\.dl_0
*1154 u_delay_line\.u_dl_2\.dl_1
*1155 u_delay_line\.u_dl_2\.dl_10
*1156 u_delay_line\.u_dl_2\.dl_2
*1157 u_delay_line\.u_dl_2\.dl_3
*1158 u_delay_line\.u_dl_2\.dl_4
*1159 u_delay_line\.u_dl_2\.dl_5
*1160 u_delay_line\.u_dl_2\.dl_6
*1161 u_delay_line\.u_dl_2\.dl_7
*1162 u_delay_line\.u_dl_2\.dl_8
*1163 u_delay_line\.u_dl_2\.dl_9
*1164 u_delay_line\.u_dl_20\.dl_0
*1165 u_delay_line\.u_dl_20\.dl_1
*1166 u_delay_line\.u_dl_20\.dl_10
*1167 u_delay_line\.u_dl_20\.dl_2
*1168 u_delay_line\.u_dl_20\.dl_3
*1169 u_delay_line\.u_dl_20\.dl_4
*1170 u_delay_line\.u_dl_20\.dl_5
*1171 u_delay_line\.u_dl_20\.dl_6
*1172 u_delay_line\.u_dl_20\.dl_7
*1173 u_delay_line\.u_dl_20\.dl_8
*1174 u_delay_line\.u_dl_20\.dl_9
*1175 u_delay_line\.u_dl_21\.dl_0
*1176 u_delay_line\.u_dl_21\.dl_1
*1177 u_delay_line\.u_dl_21\.dl_10
*1178 u_delay_line\.u_dl_21\.dl_2
*1179 u_delay_line\.u_dl_21\.dl_3
*1180 u_delay_line\.u_dl_21\.dl_4
*1181 u_delay_line\.u_dl_21\.dl_5
*1182 u_delay_line\.u_dl_21\.dl_6
*1183 u_delay_line\.u_dl_21\.dl_7
*1184 u_delay_line\.u_dl_21\.dl_8
*1185 u_delay_line\.u_dl_21\.dl_9
*1186 u_delay_line\.u_dl_22\.dl_0
*1187 u_delay_line\.u_dl_22\.dl_1
*1188 u_delay_line\.u_dl_22\.dl_10
*1189 u_delay_line\.u_dl_22\.dl_2
*1190 u_delay_line\.u_dl_22\.dl_3
*1191 u_delay_line\.u_dl_22\.dl_4
*1192 u_delay_line\.u_dl_22\.dl_5
*1193 u_delay_line\.u_dl_22\.dl_6
*1194 u_delay_line\.u_dl_22\.dl_7
*1195 u_delay_line\.u_dl_22\.dl_8
*1196 u_delay_line\.u_dl_22\.dl_9
*1197 u_delay_line\.u_dl_23\.dl_0
*1198 u_delay_line\.u_dl_23\.dl_1
*1199 u_delay_line\.u_dl_23\.dl_10
*1200 u_delay_line\.u_dl_23\.dl_2
*1201 u_delay_line\.u_dl_23\.dl_3
*1202 u_delay_line\.u_dl_23\.dl_4
*1203 u_delay_line\.u_dl_23\.dl_5
*1204 u_delay_line\.u_dl_23\.dl_6
*1205 u_delay_line\.u_dl_23\.dl_7
*1206 u_delay_line\.u_dl_23\.dl_8
*1207 u_delay_line\.u_dl_23\.dl_9
*1208 u_delay_line\.u_dl_24\.dl_0
*1209 u_delay_line\.u_dl_24\.dl_1
*1210 u_delay_line\.u_dl_24\.dl_10
*1211 u_delay_line\.u_dl_24\.dl_2
*1212 u_delay_line\.u_dl_24\.dl_3
*1213 u_delay_line\.u_dl_24\.dl_4
*1214 u_delay_line\.u_dl_24\.dl_5
*1215 u_delay_line\.u_dl_24\.dl_6
*1216 u_delay_line\.u_dl_24\.dl_7
*1217 u_delay_line\.u_dl_24\.dl_8
*1218 u_delay_line\.u_dl_24\.dl_9
*1219 u_delay_line\.u_dl_25\.dl_0
*1220 u_delay_line\.u_dl_25\.dl_1
*1221 u_delay_line\.u_dl_25\.dl_10
*1222 u_delay_line\.u_dl_25\.dl_2
*1223 u_delay_line\.u_dl_25\.dl_3
*1224 u_delay_line\.u_dl_25\.dl_4
*1225 u_delay_line\.u_dl_25\.dl_5
*1226 u_delay_line\.u_dl_25\.dl_6
*1227 u_delay_line\.u_dl_25\.dl_7
*1228 u_delay_line\.u_dl_25\.dl_8
*1229 u_delay_line\.u_dl_25\.dl_9
*1230 u_delay_line\.u_dl_26\.dl_0
*1231 u_delay_line\.u_dl_26\.dl_1
*1232 u_delay_line\.u_dl_26\.dl_10
*1233 u_delay_line\.u_dl_26\.dl_2
*1234 u_delay_line\.u_dl_26\.dl_3
*1235 u_delay_line\.u_dl_26\.dl_4
*1236 u_delay_line\.u_dl_26\.dl_5
*1237 u_delay_line\.u_dl_26\.dl_6
*1238 u_delay_line\.u_dl_26\.dl_7
*1239 u_delay_line\.u_dl_26\.dl_8
*1240 u_delay_line\.u_dl_26\.dl_9
*1241 u_delay_line\.u_dl_27\.dl_0
*1242 u_delay_line\.u_dl_27\.dl_1
*1243 u_delay_line\.u_dl_27\.dl_10
*1244 u_delay_line\.u_dl_27\.dl_2
*1245 u_delay_line\.u_dl_27\.dl_3
*1246 u_delay_line\.u_dl_27\.dl_4
*1247 u_delay_line\.u_dl_27\.dl_5
*1248 u_delay_line\.u_dl_27\.dl_6
*1249 u_delay_line\.u_dl_27\.dl_7
*1250 u_delay_line\.u_dl_27\.dl_8
*1251 u_delay_line\.u_dl_27\.dl_9
*1252 u_delay_line\.u_dl_28\.dl_0
*1253 u_delay_line\.u_dl_28\.dl_1
*1254 u_delay_line\.u_dl_28\.dl_10
*1255 u_delay_line\.u_dl_28\.dl_2
*1256 u_delay_line\.u_dl_28\.dl_3
*1257 u_delay_line\.u_dl_28\.dl_4
*1258 u_delay_line\.u_dl_28\.dl_5
*1259 u_delay_line\.u_dl_28\.dl_6
*1260 u_delay_line\.u_dl_28\.dl_7
*1261 u_delay_line\.u_dl_28\.dl_8
*1262 u_delay_line\.u_dl_28\.dl_9
*1263 u_delay_line\.u_dl_29\.dl_0
*1264 u_delay_line\.u_dl_29\.dl_1
*1265 u_delay_line\.u_dl_29\.dl_10
*1266 u_delay_line\.u_dl_29\.dl_2
*1267 u_delay_line\.u_dl_29\.dl_3
*1268 u_delay_line\.u_dl_29\.dl_4
*1269 u_delay_line\.u_dl_29\.dl_5
*1270 u_delay_line\.u_dl_29\.dl_6
*1271 u_delay_line\.u_dl_29\.dl_7
*1272 u_delay_line\.u_dl_29\.dl_8
*1273 u_delay_line\.u_dl_29\.dl_9
*1274 u_delay_line\.u_dl_3\.dl_0
*1275 u_delay_line\.u_dl_3\.dl_1