*SPEF "ieee 1481-1999"
*DESIGN "tt_um_riceshelley_tinyFPGA"
*DATE "11:11:11 Fri 11 11, 1111"
*VENDOR "OpenRCX"
*PROGRAM "Parallel Extraction"
*VERSION "1.0"
*DESIGN_FLOW "NAME_SCOPE LOCAL" "PIN_CAP NONE"
*DIVIDER /
*DELIMITER :
*BUS_DELIMITER []
*T_UNIT 1 NS
*C_UNIT 1 PF
*R_UNIT 1 OHM
*L_UNIT 1 HENRY

*NAME_MAP
*3 clk
*4 ena
*5 rst_n
*6 ui_in[0]
*7 ui_in[1]
*8 ui_in[2]
*9 ui_in[3]
*10 ui_in[4]
*11 ui_in[5]
*12 ui_in[6]
*13 ui_in[7]
*14 uio_in[0]
*15 uio_in[1]
*16 uio_in[2]
*17 uio_in[3]
*18 uio_in[4]
*19 uio_in[5]
*20 uio_in[6]
*21 uio_in[7]
*22 uio_oe[0]
*23 uio_oe[1]
*24 uio_oe[2]
*25 uio_oe[3]
*26 uio_oe[4]
*27 uio_oe[5]
*28 uio_oe[6]
*29 uio_oe[7]
*30 uio_out[0]
*31 uio_out[1]
*32 uio_out[2]
*33 uio_out[3]
*34 uio_out[4]
*35 uio_out[5]
*36 uio_out[6]
*37 uio_out[7]
*38 uo_out[0]
*39 net35
*40 net36
*41 net37
*42 net38
*43 net39
*44 net40
*45 net41
*46 _0000_
*47 _0001_
*48 _0002_
*49 _0003_
*50 _0004_
*51 _0005_
*52 _0006_
*53 _0007_
*54 _0008_
*55 _0009_
*56 _0010_
*57 _0011_
*58 _0012_
*59 _0013_
*60 _0014_
*61 _0015_
*62 _0016_
*63 _0017_
*64 _0018_
*65 _0019_
*66 _0020_
*67 _0021_
*68 _0022_
*69 _0023_
*70 _0024_
*71 _0025_
*72 _0026_
*73 _0027_
*74 _0028_
*75 _0029_
*76 _0030_
*77 _0031_
*78 _0032_
*79 _0033_
*80 _0034_
*81 _0035_
*82 _0036_
*83 _0037_
*84 _0038_
*85 _0039_
*86 _0040_
*87 _0041_
*88 _0042_
*89 _0043_
*90 _0044_
*91 _0045_
*92 _0046_
*93 _0047_
*94 _0048_
*95 _0049_
*96 _0050_
*97 _0051_
*98 _0052_
*99 _0053_
*100 _0054_
*101 _0055_
*102 _0056_
*103 _0057_
*104 _0058_
*105 _0059_
*106 _0060_
*107 _0061_
*108 _0062_
*109 _0063_
*110 _0064_
*111 _0065_
*112 _0066_
*113 _0067_
*114 _0068_
*115 _0069_
*116 _0070_
*117 _0071_
*118 _0072_
*119 _0073_
*120 _0074_
*121 _0075_
*122 _0076_
*123 _0077_
*124 _0078_
*125 _0079_
*126 _0080_
*127 _0081_
*128 _0082_
*129 _0083_
*130 _0084_
*131 _0085_
*132 _0086_
*133 _0087_
*134 _0088_
*135 _0089_
*136 _0090_
*137 _0091_
*138 _0092_
*139 _0093_
*140 _0094_
*141 _0095_
*142 _0096_
*143 _0097_
*144 _0098_
*145 _0099_
*146 _0100_
*147 _0101_
*148 _0102_
*149 _0103_
*150 _0104_
*151 _0105_
*152 _0106_
*153 _0107_
*154 _0108_
*155 _0109_
*156 _0110_
*157 _0111_
*158 _0112_
*159 _0113_
*160 _0114_
*161 _0115_
*162 _0116_
*163 _0117_
*164 _0118_
*165 _0119_
*166 _0120_
*167 _0121_
*168 _0122_
*169 _0123_
*170 _0124_
*171 _0125_
*172 _0126_
*173 _0127_
*174 _0128_
*175 _0129_
*176 _0130_
*177 _0131_
*178 _0132_
*179 _0133_
*180 _0134_
*181 _0135_
*182 _0136_
*183 _0137_
*184 _0138_
*185 _0139_
*186 _0140_
*187 _0141_
*188 _0142_
*189 _0143_
*190 _0144_
*191 _0145_
*192 _0146_
*193 _0147_
*194 _0148_
*195 _0149_
*196 _0150_
*197 _0151_
*198 _0152_
*199 _0153_
*200 _0154_
*201 _0155_
*202 _0156_
*203 _0157_
*204 _0158_
*205 _0159_
*206 _0160_
*207 _0161_
*208 _0162_
*209 _0163_
*210 _0164_
*211 _0165_
*212 _0166_
*213 _0167_
*214 _0168_
*215 _0169_
*216 _0170_
*217 _0171_
*218 _0172_
*219 _0173_
*220 _0174_
*221 _0175_
*222 _0176_
*223 _0177_
*224 _0178_
*225 _0179_
*226 _0180_
*227 _0181_
*228 _0182_
*229 _0183_
*230 _0184_
*231 _0185_
*232 _0186_
*233 _0187_
*234 _0188_
*235 _0189_
*236 _0190_
*237 _0191_
*238 _0192_
*239 _0193_
*240 _0194_
*241 _0195_
*242 _0196_
*243 _0197_
*244 _0198_
*245 _0199_
*246 _0200_
*247 _0201_
*248 _0202_
*249 _0203_
*250 _0204_
*251 _0205_
*252 _0206_
*253 _0207_
*254 _0208_
*255 _0209_
*256 _0210_
*257 _0211_
*258 _0212_
*259 _0213_
*260 _0214_
*261 _0215_
*262 _0216_
*263 _0217_
*264 _0218_
*265 _0219_
*266 _0220_
*267 _0221_
*268 _0222_
*269 _0223_
*270 _0224_
*271 _0225_
*272 _0226_
*273 _0227_
*274 _0228_
*275 _0229_
*276 _0230_
*277 _0231_
*278 _0232_
*279 _0233_
*280 _0234_
*281 _0235_
*282 _0236_
*283 _0237_
*284 _0238_
*285 _0239_
*286 _0240_
*287 _0241_
*288 _0242_
*289 _0243_
*290 _0244_
*291 _0245_
*292 _0246_
*293 _0247_
*294 _0248_
*295 _0249_
*296 _0250_
*297 _0251_
*298 _0252_
*299 _0253_
*300 _0254_
*301 _0255_
*302 _0256_
*303 _0257_
*304 _0258_
*305 _0259_
*306 _0260_
*307 _0261_
*308 _0262_
*309 _0263_
*310 _0264_
*311 _0265_
*312 _0266_
*313 _0267_
*314 _0268_
*315 _0269_
*316 _0270_
*317 _0271_
*318 _0272_
*319 _0273_
*320 _0274_
*321 _0275_
*322 _0276_
*323 _0277_
*324 _0278_
*325 _0279_
*326 _0280_
*327 _0281_
*328 _0282_
*329 _0283_
*330 _0284_
*331 _0285_
*332 _0286_
*333 _0287_
*334 _0288_
*335 _0289_
*336 _0290_
*337 _0291_
*338 _0292_
*339 _0293_
*340 _0294_
*341 _0295_
*342 _0296_
*343 _0297_
*344 _0298_
*345 _0299_
*346 _0300_
*347 _0301_
*348 _0302_
*349 _0303_
*350 _0304_
*351 _0305_
*352 _0306_
*353 _0307_
*354 _0308_
*355 _0309_
*356 _0310_
*357 _0311_
*358 _0312_
*359 _0313_
*360 _0314_
*361 _0315_
*362 _0316_
*363 _0317_
*364 _0318_
*365 _0319_
*366 _0320_
*367 _0321_
*368 _0322_
*369 _0323_
*370 _0324_
*371 _0325_
*372 _0326_
*373 _0327_
*374 _0328_
*375 _0329_
*376 _0330_
*377 _0331_
*378 _0332_
*379 _0333_
*380 _0334_
*381 _0335_
*382 _0336_
*383 _0337_
*384 _0338_
*385 _0339_
*386 _0340_
*387 _0341_
*388 _0342_
*389 _0343_
*390 _0344_
*391 _0345_
*392 _0346_
*393 _0347_
*394 _0348_
*395 _0349_
*396 _0350_
*397 _0351_
*398 _0352_
*399 _0353_
*400 _0354_
*401 _0355_
*402 _0356_
*403 _0357_
*404 _0358_
*405 _0359_
*406 _0360_
*407 _0361_
*408 _0362_
*409 _0363_
*410 _0364_
*411 _0365_
*412 _0366_
*413 _0367_
*414 _0368_
*415 _0369_
*416 _0370_
*417 _0371_
*418 _0372_
*419 _0373_
*420 _0374_
*421 _0375_
*422 _0376_
*423 _0377_
*424 _0378_
*425 _0379_
*426 _0380_
*427 _0381_
*428 _0382_
*429 _0383_
*430 _0384_
*431 _0385_
*432 _0386_
*433 _0387_
*434 _0388_
*435 _0389_
*436 _0390_
*437 _0391_
*438 _0392_
*439 _0393_
*440 _0394_
*441 _0395_
*442 _0396_
*443 _0397_
*444 _0398_
*445 _0399_
*446 _0400_
*447 _0401_
*448 _0402_
*449 _0403_
*450 _0404_
*451 _0405_
*452 _0406_
*453 _0407_
*454 _0408_
*455 _0409_
*456 _0410_
*457 _0411_
*458 _0412_
*459 _0413_
*460 _0414_
*461 _0415_
*462 _0416_
*463 _0417_
*464 _0418_
*465 _0419_
*466 _0420_
*467 _0421_
*468 _0422_
*469 _0423_
*470 _0424_
*471 _0425_
*472 _0426_
*473 _0427_
*474 _0428_
*475 _0429_
*476 _0430_
*477 _0431_
*478 _0432_
*479 _0433_
*480 _0434_
*481 _0435_
*482 _0436_
*483 _0437_
*484 _0438_
*485 _0439_
*486 _0440_
*487 _0441_
*488 _0442_
*489 _0443_
*490 _0444_
*491 _0445_
*492 _0446_
*493 _0447_
*494 _0448_
*495 _0449_
*496 _0450_
*497 _0451_
*498 _0452_
*499 _0453_
*500 _0454_
*501 _0455_
*502 _0456_
*503 _0457_
*504 _0458_
*505 _0459_
*506 _0460_
*507 _0461_
*508 _0462_
*509 _0463_
*510 _0464_
*511 _0465_
*512 _0466_
*513 _0467_
*514 _0468_
*515 _0469_
*516 _0470_
*517 _0471_
*518 _0472_
*519 _0473_
*520 _0474_
*521 _0475_
*522 _0476_
*523 _0477_
*524 _0478_
*525 _0479_
*526 _0480_
*527 _0481_
*528 _0482_
*529 _0483_
*530 _0484_
*531 _0485_
*532 _0486_
*533 _0487_
*534 _0488_
*535 _0489_
*536 _0490_
*537 _0491_
*538 _0492_
*539 _0493_
*540 _0494_
*541 _0495_
*542 _0496_
*543 _0497_
*544 _0498_
*545 _0499_
*546 _0500_
*547 _0501_
*548 _0502_
*549 _0503_
*550 _0504_
*551 _0505_
*552 _0506_
*553 _0507_
*554 _0508_
*555 _0509_
*556 _0510_
*557 _0511_
*558 _0512_
*559 _0513_
*560 _0514_
*561 _0515_
*562 _0516_
*563 _0517_
*564 _0518_
*565 _0519_
*566 _0520_
*567 _0521_
*568 _0522_
*569 _0523_
*570 _0524_
*571 _0525_
*572 _0526_
*573 _0527_
*574 _0528_
*575 _0529_
*576 _0530_
*577 _0531_
*578 _0532_
*579 _0533_
*580 _0534_
*581 _0535_
*582 _0536_
*583 _0537_
*584 _0538_
*585 _0539_
*586 _0540_
*587 _0541_
*588 _0542_
*589 _0543_
*590 _0544_
*591 _0545_
*592 _0546_
*593 _0547_
*594 _0548_
*595 _0549_
*596 _0550_
*597 _0551_
*598 _0552_
*599 _0553_
*600 _0554_
*601 _0555_
*602 _0556_
*603 _0557_
*604 _0558_
*605 _0559_
*606 _0560_
*607 _0561_
*608 _0562_
*609 _0563_
*610 _0564_
*611 _0565_
*612 _0566_
*613 _0567_
*614 _0568_
*615 _0569_
*616 _0570_
*617 _0571_
*618 _0572_
*619 _0573_
*620 _0574_
*621 _0575_
*622 _0576_
*623 _0577_
*624 _0578_
*625 _0579_
*626 _0580_
*627 _0581_
*628 _0582_
*629 _0583_
*630 _0584_
*631 _0585_
*632 _0586_
*633 _0587_
*634 _0588_
*635 _0589_
*636 _0590_
*637 _0591_
*638 _0592_
*639 _0593_
*640 _0594_
*641 _0595_
*642 _0596_
*643 _0597_
*644 _0598_
*645 _0599_
*646 _0600_
*647 _0601_
*648 _0602_
*649 _0603_
*650 _0604_
*651 _0605_
*652 _0606_
*653 _0607_
*654 _0608_
*655 _0609_
*656 _0610_
*657 _0611_
*658 _0612_
*659 _0613_
*660 _0614_
*661 _0615_
*662 _0616_
*663 _0617_
*664 _0618_
*665 _0619_
*666 _0620_
*667 _0621_
*668 _0622_
*669 _0623_
*670 _0624_
*671 _0625_
*672 _0626_
*673 _0627_
*674 _0628_
*675 _0629_
*676 _0630_
*677 _0631_
*678 _0632_
*679 _0633_
*680 _0634_
*681 _0635_
*682 _0636_
*683 _0637_
*684 _0638_
*685 _0639_
*686 _0640_
*687 _0641_
*688 _0642_
*689 _0643_
*690 _0644_
*691 _0645_
*692 _0646_
*693 _0647_
*694 _0648_
*695 _0649_
*696 _0650_
*697 _0651_
*698 _0652_
*699 _0653_
*700 _0654_
*701 _0655_
*702 _0656_
*703 _0657_
*704 _0658_
*705 _0659_
*706 _0660_
*707 _0661_
*708 _0662_
*709 _0663_
*710 _0664_
*711 _0665_
*712 _0666_
*713 _0667_
*714 _0668_
*715 _0669_
*716 _0670_
*717 _0671_
*718 _0672_
*719 _0673_
*720 _0674_
*721 _0675_
*722 _0676_
*723 _0677_
*724 _0678_
*725 _0679_
*726 _0680_
*727 _0681_
*728 _0682_
*729 _0683_
*730 _0684_
*731 _0685_
*732 _0686_
*733 _0687_
*734 _0688_
*735 _0689_
*736 _0690_
*737 _0691_
*738 _0692_
*739 _0693_
*740 _0694_
*741 _0695_
*742 _0696_
*743 _0697_
*744 _0698_
*745 _0699_
*746 _0700_
*747 _0701_
*748 _0702_
*749 _0703_
*750 _0704_
*751 _0705_
*752 _0706_
*753 _0707_
*754 _0708_
*755 _0709_
*756 _0710_
*757 _0711_
*758 _0712_
*759 _0713_
*760 _0714_
*761 _0715_
*762 _0716_
*763 _0717_
*764 _0718_
*765 _0719_
*766 _0720_
*767 _0721_
*768 _0722_
*769 _0723_
*770 _0724_
*771 _0725_
*772 _0726_
*773 _0727_
*774 _0728_
*775 _0729_
*776 _0730_
*777 _0731_
*778 _0732_
*779 _0733_
*780 _0734_
*781 _0735_
*782 _0736_
*783 _0737_
*784 _0738_
*785 _0739_
*786 _0740_
*787 _0741_
*788 _0742_
*789 _0743_
*790 _0744_
*791 _0745_
*792 _0746_
*793 _0747_
*794 _0748_
*795 _0749_
*796 _0750_
*797 _0751_
*798 _0752_
*799 _0753_
*800 _0754_
*801 _0755_
*802 _0756_
*803 _0757_
*804 _0758_
*805 _0759_
*806 _0760_
*807 _0761_
*808 _0762_
*809 _0763_
*810 _0764_
*811 _0765_
*812 _0766_
*813 _0767_
*814 _0768_
*815 _0769_
*816 _0770_
*817 _0771_
*818 _0772_
*819 _0773_
*820 _0774_
*821 _0775_
*822 _0776_
*823 _0777_
*824 _0778_
*825 _0779_
*826 _0780_
*827 _0781_
*828 _0782_
*829 _0783_
*830 _0784_
*831 _0785_
*832 clknet_0_clk
*833 clknet_1_0__leaf_clk
*834 clknet_1_1__leaf_clk
*835 grainFlex\._zz_io_muxIn_0
*836 grainFlex\._zz_io_muxIn_1
*837 grainFlex\.clb0\.belInputPinsMux_0_0\.progClkArea_selMem_0
*838 grainFlex\.clb0\.belInputPinsMux_0_0\.progClkArea_selMem_1
*839 grainFlex\.clb0\.belInputPinsMux_0_0\.progClkArea_selMem_2
*840 grainFlex\.clb0\.belInputPinsMux_0_0\.progIface_dIn
*841 grainFlex\.clb0\.belInputPinsMux_0_1\.progClkArea_selMem_0
*842 grainFlex\.clb0\.belInputPinsMux_0_1\.progClkArea_selMem_1
*843 grainFlex\.clb0\.belInputPinsMux_0_1\.progClkArea_selMem_2
*844 grainFlex\.clb0\.belInputPinsMux_0_2\.progClkArea_selMem_0
*845 grainFlex\.clb0\.belInputPinsMux_0_2\.progClkArea_selMem_1
*846 grainFlex\.clb0\.belInputPinsMux_0_2\.progClkArea_selMem_2
*847 grainFlex\.clb0\.belInputPinsMux_0_3\.progClkArea_selMem_0
*848 grainFlex\.clb0\.belInputPinsMux_0_3\.progClkArea_selMem_1
*849 grainFlex\.clb0\.belInputPinsMux_0_3\.progClkArea_selMem_2
*850 grainFlex\.clb0\.belInputPinsMux_1_0\.progClkArea_selMem_0
*851 grainFlex\.clb0\.belInputPinsMux_1_0\.progClkArea_selMem_1
*852 grainFlex\.clb0\.belInputPinsMux_1_0\.progClkArea_selMem_2
*853 grainFlex\.clb0\.belInputPinsMux_1_0\.progIface_dIn
*854 grainFlex\.clb0\.belInputPinsMux_1_1\.progClkArea_selMem_0
*855 grainFlex\.clb0\.belInputPinsMux_1_1\.progClkArea_selMem_1
*856 grainFlex\.clb0\.belInputPinsMux_1_1\.progClkArea_selMem_2
*857 grainFlex\.clb0\.belInputPinsMux_1_2\.progClkArea_selMem_0
*858 grainFlex\.clb0\.belInputPinsMux_1_2\.progClkArea_selMem_1
*859 grainFlex\.clb0\.belInputPinsMux_1_2\.progClkArea_selMem_2
*860 grainFlex\.clb0\.belInputPinsMux_1_3\.progClkArea_selMem_0
*861 grainFlex\.clb0\.belInputPinsMux_1_3\.progClkArea_selMem_1
*862 grainFlex\.clb0\.belInputPinsMux_1_3\.progClkArea_selMem_2
*863 grainFlex\.clb0\.belInputPinsMux_2_0\.progClkArea_selMem_0
*864 grainFlex\.clb0\.belInputPinsMux_2_0\.progClkArea_selMem_1
*865 grainFlex\.clb0\.belInputPinsMux_2_0\.progClkArea_selMem_2
*866 grainFlex\.clb0\.belInputPinsMux_2_0\.progIface_dIn
*867 grainFlex\.clb0\.belInputPinsMux_2_1\.progClkArea_selMem_0
*868 grainFlex\.clb0\.belInputPinsMux_2_1\.progClkArea_selMem_1
*869 grainFlex\.clb0\.belInputPinsMux_2_1\.progClkArea_selMem_2
*870 grainFlex\.clb0\.belInputPinsMux_2_2\.progClkArea_selMem_0
*871 grainFlex\.clb0\.belInputPinsMux_2_2\.progClkArea_selMem_1
*872 grainFlex\.clb0\.belInputPinsMux_2_2\.progClkArea_selMem_2
*873 grainFlex\.clb0\.belInputPinsMux_2_3\.progClkArea_selMem_0
*874 grainFlex\.clb0\.belInputPinsMux_2_3\.progClkArea_selMem_1
*875 grainFlex\.clb0\.belInputPinsMux_2_3\.progClkArea_selMem_2
*876 grainFlex\.clb0\.belInputPinsMux_3_0\.progClkArea_selMem_0
*877 grainFlex\.clb0\.belInputPinsMux_3_0\.progClkArea_selMem_1
*878 grainFlex\.clb0\.belInputPinsMux_3_0\.progClkArea_selMem_2
*879 grainFlex\.clb0\.belInputPinsMux_3_0\.progIface_dIn
*880 grainFlex\.clb0\.belInputPinsMux_3_1\.progClkArea_selMem_0
*881 grainFlex\.clb0\.belInputPinsMux_3_1\.progClkArea_selMem_1
*882 grainFlex\.clb0\.belInputPinsMux_3_1\.progClkArea_selMem_2
*883 grainFlex\.clb0\.belInputPinsMux_3_2\.progClkArea_selMem_0
*884 grainFlex\.clb0\.belInputPinsMux_3_2\.progClkArea_selMem_1
*885 grainFlex\.clb0\.belInputPinsMux_3_2\.progClkArea_selMem_2
*886 grainFlex\.clb0\.belInputPinsMux_3_3\.progClkArea_selMem_0
*887 grainFlex\.clb0\.belInputPinsMux_3_3\.progClkArea_selMem_1
*888 grainFlex\.clb0\.belInputPinsMux_3_3\.progClkArea_selMem_2
*889 grainFlex\.clb0\.bels_0\.dFF
*890 grainFlex\.clb0\.bels_0\.lut_4\._zz__zz_io_lutOut
*891 grainFlex\.clb0\.bels_0\.lut_4\.lut_0
*892 grainFlex\.clb0\.bels_0\.lut_4\.lut_10
*893 grainFlex\.clb0\.bels_0\.lut_4\.lut_11
*894 grainFlex\.clb0\.bels_0\.lut_4\.lut_12
*895 grainFlex\.clb0\.bels_0\.lut_4\.lut_13
*896 grainFlex\.clb0\.bels_0\.lut_4\.lut_14
*897 grainFlex\.clb0\.bels_0\.lut_4\.lut_15
*898 grainFlex\.clb0\.bels_0\.lut_4\.lut_1_1
*899 grainFlex\.clb0\.bels_0\.lut_4\.lut_2_1
*900 grainFlex\.clb0\.bels_0\.lut_4\.lut_3_1
*901 grainFlex\.clb0\.bels_0\.lut_4\.lut_4
*902 grainFlex\.clb0\.bels_0\.lut_4\.lut_5
*903 grainFlex\.clb0\.bels_0\.lut_4\.lut_6
*904 grainFlex\.clb0\.bels_0\.lut_4\.lut_7
*905 grainFlex\.clb0\.bels_0\.lut_4\.lut_8
*906 grainFlex\.clb0\.bels_0\.lut_4\.lut_9
*907 grainFlex\.clb0\.bels_0\.lut_4\.progIface_dIn
*908 grainFlex\.clb0\.bels_1\.dFF
*909 grainFlex\.clb0\.bels_1\.lut_4\._zz__zz_io_lutOut
*910 grainFlex\.clb0\.bels_1\.lut_4\.lut_0
*911 grainFlex\.clb0\.bels_1\.lut_4\.lut_10
*912 grainFlex\.clb0\.bels_1\.lut_4\.lut_11
*913 grainFlex\.clb0\.bels_1\.lut_4\.lut_12
*914 grainFlex\.clb0\.bels_1\.lut_4\.lut_13
*915 grainFlex\.clb0\.bels_1\.lut_4\.lut_14
*916 grainFlex\.clb0\.bels_1\.lut_4\.lut_15
*917 grainFlex\.clb0\.bels_1\.lut_4\.lut_1_1
*918 grainFlex\.clb0\.bels_1\.lut_4\.lut_2_1
*919 grainFlex\.clb0\.bels_1\.lut_4\.lut_3_1
*920 grainFlex\.clb0\.bels_1\.lut_4\.lut_4
*921 grainFlex\.clb0\.bels_1\.lut_4\.lut_5
*922 grainFlex\.clb0\.bels_1\.lut_4\.lut_6
*923 grainFlex\.clb0\.bels_1\.lut_4\.lut_7
*924 grainFlex\.clb0\.bels_1\.lut_4\.lut_8
*925 grainFlex\.clb0\.bels_1\.lut_4\.lut_9
*926 grainFlex\.clb0\.bels_2\.dFF
*927 grainFlex\.clb0\.bels_2\.lut_4\._zz__zz_io_lutOut
*928 grainFlex\.clb0\.bels_2\.lut_4\.lut_0
*929 grainFlex\.clb0\.bels_2\.lut_4\.lut_10
*930 grainFlex\.clb0\.bels_2\.lut_4\.lut_11
*931 grainFlex\.clb0\.bels_2\.lut_4\.lut_12
*932 grainFlex\.clb0\.bels_2\.lut_4\.lut_13
*933 grainFlex\.clb0\.bels_2\.lut_4\.lut_14
*934 grainFlex\.clb0\.bels_2\.lut_4\.lut_15
*935 grainFlex\.clb0\.bels_2\.lut_4\.lut_1_1
*936 grainFlex\.clb0\.bels_2\.lut_4\.lut_2_1
*937 grainFlex\.clb0\.bels_2\.lut_4\.lut_3_1
*938 grainFlex\.clb0\.bels_2\.lut_4\.lut_4
*939 grainFlex\.clb0\.bels_2\.lut_4\.lut_5
*940 grainFlex\.clb0\.bels_2\.lut_4\.lut_6
*941 grainFlex\.clb0\.bels_2\.lut_4\.lut_7
*942 grainFlex\.clb0\.bels_2\.lut_4\.lut_8
*943 grainFlex\.clb0\.bels_2\.lut_4\.lut_9
*944 grainFlex\.clb0\.bels_3\.dFF
*945 grainFlex\.clb0\.bels_3\.lut_4\._zz__zz_io_lutOut
*946 grainFlex\.clb0\.bels_3\.lut_4\.lut_0
*947 grainFlex\.clb0\.bels_3\.lut_4\.lut_10
*948 grainFlex\.clb0\.bels_3\.lut_4\.lut_11
*949 grainFlex\.clb0\.bels_3\.lut_4\.lut_12
*950 grainFlex\.clb0\.bels_3\.lut_4\.lut_13
*951 grainFlex\.clb0\.bels_3\.lut_4\.lut_14
*952 grainFlex\.clb0\.bels_3\.lut_4\.lut_15
*953 grainFlex\.clb0\.bels_3\.lut_4\.lut_1_1
*954 grainFlex\.clb0\.bels_3\.lut_4\.lut_2_1
*955 grainFlex\.clb0\.bels_3\.lut_4\.lut_3_1
*956 grainFlex\.clb0\.bels_3\.lut_4\.lut_4
*957 grainFlex\.clb0\.bels_3\.lut_4\.lut_5
*958 grainFlex\.clb0\.bels_3\.lut_4\.lut_6
*959 grainFlex\.clb0\.bels_3\.lut_4\.lut_7
*960 grainFlex\.clb0\.bels_3\.lut_4\.lut_8
*961 grainFlex\.clb0\.bels_3\.lut_4\.lut_9
*962 grainFlex\.clb0InputMuxs_0\.progClkArea_selMem_0
*963 grainFlex\.clb0InputMuxs_0\.progClkArea_selMem_1
*964 grainFlex\.clb0InputMuxs_0\.progClkArea_selMem_2
*965 grainFlex\.clb0InputMuxs_1\.progClkArea_selMem_0
*966 grainFlex\.clb0InputMuxs_1\.progClkArea_selMem_1
*967 grainFlex\.clb0InputMuxs_1\.progClkArea_selMem_2
*968 grainFlex\.clb0InputMuxs_2\.progClkArea_selMem_0
*969 grainFlex\.clb0InputMuxs_2\.progClkArea_selMem_1
*970 grainFlex\.clb0InputMuxs_2\.progClkArea_selMem_2
*971 grainFlex\.clb0InputMuxs_3\.progClkArea_selMem_0
*972 grainFlex\.clb0InputMuxs_3\.progClkArea_selMem_1
*973 grainFlex\.clb0InputMuxs_3\.progClkArea_selMem_2
*974 grainFlex\.fabricOutputPinMuxs_0\.io_muxOut
*975 grainFlex\.fabricOutputPinMuxs_0\.progClkArea_selMem_0
*976 grainFlex\.fabricOutputPinMuxs_0\.progClkArea_selMem_1
*977 grainFlex\.fabricOutputPinMuxs_1\.io_muxOut
*978 grainFlex\.fabricOutputPinMuxs_1\.progClkArea_selMem_0
*979 grainFlex\.fabricOutputPinMuxs_1\.progClkArea_selMem_1
*980 grainFlex\.fabricOutputPinMuxs_2\.io_muxOut
*981 grainFlex\.fabricOutputPinMuxs_2\.progClkArea_selMem_0
*982 grainFlex\.fabricOutputPinMuxs_2\.progClkArea_selMem_1
*983 grainFlex\.fabricOutputPinMuxs_3\.io_muxOut
*984 grainFlex\.fabricOutputPinMuxs_3\.progClkArea_selMem_0
*985 grainFlex\.fabricOutputPinMuxs_3\.progClkArea_selMem_1
*986 grainFlex\.fabricOutputPinMuxs_4\.io_muxOut
*987 grainFlex\.fabricOutputPinMuxs_4\.progClkArea_selMem_0
*988 grainFlex\.fabricOutputPinMuxs_4\.progClkArea_selMem_1
*989 grainFlex\.fabricOutputPinMuxs_5\.io_muxOut
*990 grainFlex\.fabricOutputPinMuxs_5\.progClkArea_selMem_0
*991 grainFlex\.fabricOutputPinMuxs_5\.progClkArea_selMem_1
*992 grainFlex\.fabricOutputPinMuxs_6\.io_muxOut
*993 grainFlex\.fabricOutputPinMuxs_6\.progClkArea_selMem_0
*994 grainFlex\.fabricOutputPinMuxs_6\.progClkArea_selMem_1
*995 grainFlex\.fabricOutputPinMuxs_7\.io_muxOut
*996 grainFlex\.fabricOutputPinMuxs_7\.progClkArea_selMem_0
*997 grainFlex\.fabricOutputPinMuxs_7\.progClkArea_selMem_1
*998 grainFlex\.ioBuf_1\.progClkArea_pinDirMem_0
*999 grainFlex\.ioBuf_1\.progClkArea_pinDirMem_1
*1000 grainFlex\.ioBuf_1\.progClkArea_pinDirMem_2
*1001 grainFlex\.ioBuf_1\.progClkArea_pinDirMem_3
*1002 grainFlex\.ioBuf_1\.progClkArea_pinDirMem_4
*1003 grainFlex\.ioBuf_1\.progClkArea_pinDirMem_5
*1004 grainFlex\.ioBuf_1\.progClkArea_pinDirMem_6
*1005 net1
*1006 net10
*1007 net11
*1008 net12
*1009 net13
*1010 net14
*1011 net15
*1012 net16
*1013 net17
*1014 net18
*1015 net19
*1016 net2
*1017 net20
*1018 net21
*1019 net22
*1020 net23
*1021 net24
*1022 net25
*1023 net26
*1024 net27
*1025 net28
*1026 net29
*1027 net3
*1028 net30
*1029 net31
*1030 net32
*1031 net33
*1032 net34
*1033 net4
*1034 net42
*1035 net43
*1036 net44
*1037 net45
*1038 net46
*1039 net47
*1040 net5
*1041 net6
*1042 net7
*1043 net8
*1044 net9
*1045 FILLER_0_0_109
*1046 FILLER_0_0_113
*1047 FILLER_0_0_125
*1048 FILLER_0_0_137
*1049 FILLER_0_0_141
*1050 FILLER_0_0_15
*1051 FILLER_0_0_153
*1052 FILLER_0_0_165
*1053 FILLER_0_0_169
*1054 FILLER_0_0_181
*1055 FILLER_0_0_193
*1056 FILLER_0_0_197
*1057 FILLER_0_0_209
*1058 FILLER_0_0_221
*1059 FILLER_0_0_225
*1060 FILLER_0_0_237
*1061 FILLER_0_0_249
*1062 FILLER_0_0_253
*1063 FILLER_0_0_265
*1064 FILLER_0_0_27
*1065 FILLER_0_0_277
*1066 FILLER_0_0_281
*1067 FILLER_0_0_29
*1068 FILLER_0_0_293
*1069 FILLER_0_0_3
*1070 FILLER_0_0_305
*1071 FILLER_0_0_309
*1072 FILLER_0_0_321
*1073 FILLER_0_0_333
*1074 FILLER_0_0_337
*1075 FILLER_0_0_349
*1076 FILLER_0_0_41
*1077 FILLER_0_0_53
*1078 FILLER_0_0_57
*1079 FILLER_0_0_69
*1080 FILLER_0_0_81
*1081 FILLER_0_0_85
*1082 FILLER_0_0_97
*1083 FILLER_0_10_109
*1084 FILLER_0_10_121
*1085 FILLER_0_10_133
*1086 FILLER_0_10_139
*1087 FILLER_0_10_141
*1088 FILLER_0_10_15
*1089 FILLER_0_10_153
*1090 FILLER_0_10_165
*1091 FILLER_0_10_177
*1092 FILLER_0_10_189
*1093 FILLER_0_10_195
*1094 FILLER_0_10_197
*1095 FILLER_0_10_209
*1096 FILLER_0_10_221
*1097 FILLER_0_10_233
*1098 FILLER_0_10_245
*1099 FILLER_0_10_251
*1100 FILLER_0_10_253
*1101 FILLER_0_10_265
*1102 FILLER_0_10_27
*1103 FILLER_0_10_277
*1104 FILLER_0_10_289
*1105 FILLER_0_10_29
*1106 FILLER_0_10_3
*1107 FILLER_0_10_301
*1108 FILLER_0_10_307
*1109 FILLER_0_10_309
*1110 FILLER_0_10_321
*1111 FILLER_0_10_333
*1112 FILLER_0_10_345
*1113 FILLER_0_10_41
*1114 FILLER_0_10_53
*1115 FILLER_0_10_65
*1116 FILLER_0_10_77
*1117 FILLER_0_10_83
*1118 FILLER_0_10_85
*1119 FILLER_0_10_97
*1120 FILLER_0_11_105
*1121 FILLER_0_11_111
*1122 FILLER_0_11_113
*1123 FILLER_0_11_125
*1124 FILLER_0_11_137
*1125 FILLER_0_11_149
*1126 FILLER_0_11_15
*1127 FILLER_0_11_161
*1128 FILLER_0_11_167
*1129 FILLER_0_11_169
*1130 FILLER_0_11_181
*1131 FILLER_0_11_193
*1132 FILLER_0_11_205
*1133 FILLER_0_11_217
*1134 FILLER_0_11_223
*1135 FILLER_0_11_225
*1136 FILLER_0_11_237
*1137 FILLER_0_11_249
*1138 FILLER_0_11_261
*1139 FILLER_0_11_27
*1140 FILLER_0_11_273
*1141 FILLER_0_11_279
*1142 FILLER_0_11_281
*1143 FILLER_0_11_293
*1144 FILLER_0_11_3
*1145 FILLER_0_11_305
*1146 FILLER_0_11_317
*1147 FILLER_0_11_329
*1148 FILLER_0_11_335
*1149 FILLER_0_11_337
*1150 FILLER_0_11_349
*1151 FILLER_0_11_39
*1152 FILLER_0_11_51
*1153 FILLER_0_11_55
*1154 FILLER_0_11_57
*1155 FILLER_0_11_69
*1156 FILLER_0_11_81
*1157 FILLER_0_11_93
*1158 FILLER_0_12_109
*1159 FILLER_0_12_121
*1160 FILLER_0_12_133
*1161 FILLER_0_12_139
*1162 FILLER_0_12_141
*1163 FILLER_0_12_15
*1164 FILLER_0_12_153
*1165 FILLER_0_12_165
*1166 FILLER_0_12_177
*1167 FILLER_0_12_189
*1168 FILLER_0_12_195
*1169 FILLER_0_12_197
*1170 FILLER_0_12_209
*1171 FILLER_0_12_221
*1172 FILLER_0_12_233
*1173 FILLER_0_12_245
*1174 FILLER_0_12_251
*1175 FILLER_0_12_253
*1176 FILLER_0_12_265
*1177 FILLER_0_12_27
*1178 FILLER_0_12_277
*1179 FILLER_0_12_289
*1180 FILLER_0_12_29
*1181 FILLER_0_12_3
*1182 FILLER_0_12_301
*1183 FILLER_0_12_307
*1184 FILLER_0_12_309
*1185 FILLER_0_12_321
*1186 FILLER_0_12_333
*1187 FILLER_0_12_345
*1188 FILLER_0_12_41
*1189 FILLER_0_12_53
*1190 FILLER_0_12_65
*1191 FILLER_0_12_77
*1192 FILLER_0_12_83
*1193 FILLER_0_12_85
*1194 FILLER_0_12_97
*1195 FILLER_0_13_105
*1196 FILLER_0_13_111
*1197 FILLER_0_13_113
*1198 FILLER_0_13_125
*1199 FILLER_0_13_137
*1200 FILLER_0_13_149
*1201 FILLER_0_13_15
*1202 FILLER_0_13_161
*1203 FILLER_0_13_167
*1204 FILLER_0_13_169
*1205 FILLER_0_13_181
*1206 FILLER_0_13_193
*1207 FILLER_0_13_205
*1208 FILLER_0_13_217
*1209 FILLER_0_13_223
*1210 FILLER_0_13_225
*1211 FILLER_0_13_237
*1212 FILLER_0_13_249
*1213 FILLER_0_13_261
*1214 FILLER_0_13_27
*1215 FILLER_0_13_273
*1216 FILLER_0_13_279
*1217 FILLER_0_13_281
*1218 FILLER_0_13_293
*1219 FILLER_0_13_3
*1220 FILLER_0_13_305
*1221 FILLER_0_13_317
*1222 FILLER_0_13_329
*1223 FILLER_0_13_335
*1224 FILLER_0_13_337
*1225 FILLER_0_13_349
*1226 FILLER_0_13_39
*1227 FILLER_0_13_51
*1228 FILLER_0_13_55
*1229 FILLER_0_13_57
*1230 FILLER_0_13_69
*1231 FILLER_0_13_81
*1232 FILLER_0_13_93
*1233 FILLER_0_14_109
*1234 FILLER_0_14_121
*1235 FILLER_0_14_133
*1236 FILLER_0_14_139
*1237 FILLER_0_14_141
*1238 FILLER_0_14_15
*1239 FILLER_0_14_153
*1240 FILLER_0_14_165
*1241 FILLER_0_14_177
*1242 FILLER_0_14_189
*1243 FILLER_0_14_195
*1244 FILLER_0_14_197
*1245 FILLER_0_14_209
*1246 FILLER_0_14_221
*1247 FILLER_0_14_233
*1248 FILLER_0_14_245
*1249 FILLER_0_14_251
*1250 FILLER_0_14_253
*1251 FILLER_0_14_265
*1252 FILLER_0_14_27
*1253 FILLER_0_14_277
*1254 FILLER_0_14_289
*1255 FILLER_0_14_29
*1256 FILLER_0_14_3
*1257 FILLER_0_14_301
*1258 FILLER_0_14_307
*1259 FILLER_0_14_309
*1260 FILLER_0_14_321
*1261 FILLER_0_14_333
*1262 FILLER_0_14_345
*1263 FILLER_0_14_41
*1264 FILLER_0_14_53
*1265 FILLER_0_14_65
*1266 FILLER_0_14_77
*1267 FILLER_0_14_83
*1268 FILLER_0_14_85
*1269 FILLER_0_14_97
*1270 FILLER_0_15_105
*1271 FILLER_0_15_111
*1272 FILLER_0_15_113
*1273 FILLER_0_15_125
*1274 FILLER_0_15_137
*1275 FILLER_0_15_149
*1276 FILLER_0_15_15
*1277 FILLER_0_15_161
*1278 FILLER_0_15_167
*1279 FILLER_0_15_169
*1280 FILLER_0_15_181
*1281 FILLER_0_15_193
*1282 FILLER_0_15_205
*1283 FILLER_0_15_217
*1284 FILLER_0_15_223
*1285 FILLER_0_15_225
*1286 FILLER_0_15_237
*1287 FILLER_0_15_249
*1288 FILLER_0_15_261
*1289 FILLER_0_15_27
*1290 FILLER_0_15_273
*1291 FILLER_0_15_279
*1292 FILLER_0_15_281
*1293 FILLER_0_15_293
*1294 FILLER_0_15_3
*1295 FILLER_0_15_305
*1296 FILLER_0_15_317
*1297 FILLER_0_15_329
*1298 FILLER_0_15_335
*1299 FILLER_0_15_337
*1300 FILLER_0_15_349
*1301 FILLER_0_15_39
*1302 FILLER_0_15_51
*1303 FILLER_0_15_55
*1304 FILLER_0_15_57
*1305 FILLER_0_15_69
*1306 FILLER_0_15_81
*1307 FILLER_0_15_93
*1308 FILLER_0_16_109
*1309 FILLER_0_16_121
*1310 FILLER_0_16_133
*1311 FILLER_0_16_139
*1312 FILLER_0_16_141
*1313 FILLER_0_16_15
*1314 FILLER_0_16_153
*1315 FILLER_0_16_165
*1316 FILLER_0_16_177
*1317 FILLER_0_16_189
*1318 FILLER_0_16_195
*1319 FILLER_0_16_197
*1320 FILLER_0_16_209
*1321 FILLER_0_16_221
*1322 FILLER_0_16_233
*1323 FILLER_0_16_245
*1324 FILLER_0_16_251
*1325 FILLER_0_16_253
*1326 FILLER_0_16_265
*1327 FILLER_0_16_27
*1328 FILLER_0_16_277
*1329 FILLER_0_16_289
*1330 FILLER_0_16_29
*1331 FILLER_0_16_3
*1332 FILLER_0_16_301
*1333 FILLER_0_16_307
*1334 FILLER_0_16_309
*1335 FILLER_0_16_321
*1336 FILLER_0_16_333
*1337 FILLER_0_16_345
*1338 FILLER_0_16_41
*1339 FILLER_0_16_53
*1340 FILLER_0_16_65
*1341 FILLER_0_16_77
*1342 FILLER_0_16_83
*1343 FILLER_0_16_85
*1344 FILLER_0_16_97
*1345 FILLER_0_17_105
*1346 FILLER_0_17_111
*1347 FILLER_0_17_113
*1348 FILLER_0_17_125
*1349 FILLER_0_17_137
*1350 FILLER_0_17_149
*1351 FILLER_0_17_15
*1352 FILLER_0_17_161
*1353 FILLER_0_17_167
*1354 FILLER_0_17_169
*1355 FILLER_0_17_181
*1356 FILLER_0_17_193
*1357 FILLER_0_17_205
*1358 FILLER_0_17_217
*1359 FILLER_0_17_223
*1360 FILLER_0_17_225
*1361 FILLER_0_17_237
*1362 FILLER_0_17_249
*1363 FILLER_0_17_261
*1364 FILLER_0_17_27
*1365 FILLER_0_17_273
*1366 FILLER_0_17_279
*1367 FILLER_0_17_281
*1368 FILLER_0_17_293
*1369 FILLER_0_17_3
*1370 FILLER_0_17_305
*1371 FILLER_0_17_317
*1372 FILLER_0_17_329
*1373 FILLER_0_17_335
*1374 FILLER_0_17_337
*1375 FILLER_0_17_349
*1376 FILLER_0_17_39
*1377 FILLER_0_17_51
*1378 FILLER_0_17_55
*1379 FILLER_0_17_57
*1380 FILLER_0_17_69
*1381 FILLER_0_17_81
*1382 FILLER_0_17_93
*1383 FILLER_0_18_109
*1384 FILLER_0_18_121
*1385 FILLER_0_18_133
*1386 FILLER_0_18_139
*1387 FILLER_0_18_141
*1388 FILLER_0_18_15
*1389 FILLER_0_18_153
*1390 FILLER_0_18_165
*1391 FILLER_0_18_177
*1392 FILLER_0_18_189
*1393 FILLER_0_18_195
*1394 FILLER_0_18_197
*1395 FILLER_0_18_209
*1396 FILLER_0_18_221
*1397 FILLER_0_18_233
*1398 FILLER_0_18_245
*1399 FILLER_0_18_251
*1400 FILLER_0_18_253
*1401 FILLER_0_18_265
*1402 FILLER_0_18_27
*1403 FILLER_0_18_277
*1404 FILLER_0_18_289
*1405 FILLER_0_18_29
*1406 FILLER_0_18_3
*1407 FILLER_0_18_301
*1408 FILLER_0_18_307
*1409 FILLER_0_18_309
*1410 FILLER_0_18_321
*1411 FILLER_0_18_333
*1412 FILLER_0_18_345
*1413 FILLER_0_18_41
*1414 FILLER_0_18_53
*1415 FILLER_0_18_65
*1416 FILLER_0_18_77
*1417 FILLER_0_18_83
*1418 FILLER_0_18_85
*1419 FILLER_0_18_97
*1420 FILLER_0_19_105
*1421 FILLER_0_19_111
*1422 FILLER_0_19_113
*1423 FILLER_0_19_125
*1424 FILLER_0_19_137
*1425 FILLER_0_19_149
*1426 FILLER_0_19_15
*1427 FILLER_0_19_161
*1428 FILLER_0_19_167
*1429 FILLER_0_19_169
*1430 FILLER_0_19_181
*1431 FILLER_0_19_193
*1432 FILLER_0_19_205
*1433 FILLER_0_19_217
*1434 FILLER_0_19_223
*1435 FILLER_0_19_225
*1436 FILLER_0_19_237
*1437 FILLER_0_19_249
*1438 FILLER_0_19_261
*1439 FILLER_0_19_27
*1440 FILLER_0_19_273
*1441 FILLER_0_19_279
*1442 FILLER_0_19_281
*1443 FILLER_0_19_293
*1444 FILLER_0_19_3
*1445 FILLER_0_19_305
*1446 FILLER_0_19_317
*1447 FILLER_0_19_329
*1448 FILLER_0_19_335
*1449 FILLER_0_19_337
*1450 FILLER_0_19_349
*1451 FILLER_0_19_39
*1452 FILLER_0_19_51
*1453 FILLER_0_19_55
*1454 FILLER_0_19_57
*1455 FILLER_0_19_69
*1456 FILLER_0_19_81
*1457 FILLER_0_19_93
*1458 FILLER_0_1_105
*1459 FILLER_0_1_111
*1460 FILLER_0_1_113
*1461 FILLER_0_1_125
*1462 FILLER_0_1_137
*1463 FILLER_0_1_149
*1464 FILLER_0_1_15
*1465 FILLER_0_1_161
*1466 FILLER_0_1_167
*1467 FILLER_0_1_169
*1468 FILLER_0_1_181
*1469 FILLER_0_1_193
*1470 FILLER_0_1_205
*1471 FILLER_0_1_217
*1472 FILLER_0_1_223
*1473 FILLER_0_1_225
*1474 FILLER_0_1_237
*1475 FILLER_0_1_249
*1476 FILLER_0_1_261
*1477 FILLER_0_1_27
*1478 FILLER_0_1_273
*1479 FILLER_0_1_279
*1480 FILLER_0_1_281
*1481 FILLER_0_1_293
*1482 FILLER_0_1_3
*1483 FILLER_0_1_305
*1484 FILLER_0_1_317
*1485 FILLER_0_1_329
*1486 FILLER_0_1_335
*1487 FILLER_0_1_337
*1488 FILLER_0_1_349
*1489 FILLER_0_1_39
*1490 FILLER_0_1_51
*1491 FILLER_0_1_55
*1492 FILLER_0_1_57
*1493 FILLER_0_1_69
*1494 FILLER_0_1_81
*1495 FILLER_0_1_93
*1496 FILLER_0_20_109
*1497 FILLER_0_20_121
*1498 FILLER_0_20_133
*1499 FILLER_0_20_139
*1500 FILLER_0_20_141
*1501 FILLER_0_20_15
*1502 FILLER_0_20_153
*1503 FILLER_0_20_165
*1504 FILLER_0_20_177
*1505 FILLER_0_20_189
*1506 FILLER_0_20_195
*1507 FILLER_0_20_197
*1508 FILLER_0_20_209
*1509 FILLER_0_20_221
*1510 FILLER_0_20_233
*1511 FILLER_0_20_245
*1512 FILLER_0_20_251
*1513 FILLER_0_20_253
*1514 FILLER_0_20_265
*1515 FILLER_0_20_27
*1516 FILLER_0_20_277
*1517 FILLER_0_20_289
*1518 FILLER_0_20_29
*1519 FILLER_0_20_3
*1520 FILLER_0_20_301
*1521 FILLER_0_20_307
*1522 FILLER_0_20_309