*SPEF "ieee 1481-1999"
*DESIGN "tt_um_ALU_NicolasOrcasitas"
*DATE "11:11:11 Fri 11 11, 1111"
*VENDOR "OpenRCX"
*PROGRAM "Parallel Extraction"
*VERSION "1.0"
*DESIGN_FLOW "NAME_SCOPE LOCAL" "PIN_CAP NONE"
*DIVIDER /
*DELIMITER :
*BUS_DELIMITER []
*T_UNIT 1 NS
*C_UNIT 1 PF
*R_UNIT 1 OHM
*L_UNIT 1 HENRY

*NAME_MAP
*3 clk
*4 ena
*5 rst_n
*6 ui_in[0]
*7 ui_in[1]
*8 ui_in[2]
*9 ui_in[3]
*10 ui_in[4]
*11 ui_in[5]
*12 ui_in[6]
*13 ui_in[7]
*14 uio_in[0]
*15 uio_in[1]
*16 uio_in[2]
*17 uio_in[3]
*18 uio_in[4]
*19 uio_in[5]
*20 uio_in[6]
*21 uio_in[7]
*22 net16
*23 net17
*24 net18
*25 net19
*26 net20
*27 net21
*28 net22
*29 net23
*30 uio_out[0]
*31 uio_out[1]
*32 uio_out[2]
*33 uio_out[3]
*34 uio_out[4]
*35 uio_out[5]
*36 uio_out[6]
*37 uio_out[7]
*38 uo_out[0]
*39 uo_out[1]
*40 uo_out[2]
*41 uo_out[3]
*42 uo_out[4]
*43 uo_out[5]
*44 uo_out[6]
*45 uo_out[7]
*46 A\[0\]
*47 A\[1\]
*48 A\[2\]
*49 A\[3\]
*50 A\[4\]
*51 A\[5\]
*52 A\[6\]
*53 A\[7\]
*54 B\[0\]
*55 B\[1\]
*56 B\[2\]
*57 B\[3\]
*58 B\[4\]
*59 B\[5\]
*60 B\[6\]
*61 B\[7\]
*62 _0000_
*63 _0001_
*64 _0002_
*65 _0003_
*66 _0004_
*67 _0005_
*68 _0006_
*69 _0007_
*70 _0008_
*71 _0009_
*72 _0010_
*73 _0011_
*74 _0012_
*75 _0013_
*76 _0014_
*77 _0015_
*78 _0016_
*79 _0017_
*80 _0018_
*81 _0019_
*82 _0020_
*83 _0021_
*84 _0022_
*85 _0023_
*86 _0024_
*87 _0025_
*88 _0026_
*89 _0027_
*90 _0028_
*91 _0029_
*92 _0030_
*93 _0031_
*94 _0032_
*95 _0033_
*96 _0034_
*97 _0035_
*98 _0036_
*99 _0037_
*100 _0038_
*101 _0039_
*102 _0040_
*103 _0041_
*104 _0042_
*105 _0043_
*106 _0044_
*107 _0045_
*108 _0046_
*109 _0047_
*110 _0048_
*111 _0049_
*112 _0050_
*113 _0051_
*114 _0052_
*115 _0053_
*116 _0054_
*117 _0055_
*118 _0056_
*119 _0057_
*120 _0058_
*121 _0059_
*122 _0060_
*123 _0061_
*124 _0062_
*125 _0063_
*126 _0064_
*127 _0065_
*128 _0066_
*129 _0067_
*130 _0068_
*131 _0069_
*132 _0070_
*133 _0071_
*134 _0072_
*135 _0073_
*136 _0074_
*137 _0075_
*138 _0076_
*139 _0077_
*140 _0078_
*141 _0079_
*142 _0080_
*143 _0081_
*144 _0082_
*145 _0083_
*146 _0084_
*147 _0085_
*148 _0086_
*149 _0087_
*150 _0088_
*151 _0089_
*152 _0090_
*153 _0091_
*154 _0092_
*155 _0093_
*156 _0094_
*157 _0095_
*158 _0096_
*159 _0097_
*160 _0098_
*161 _0099_
*162 _0100_
*163 _0101_
*164 _0102_
*165 _0103_
*166 _0104_
*167 _0105_
*168 _0106_
*169 _0107_
*170 _0108_
*171 _0109_
*172 _0110_
*173 _0111_
*174 _0112_
*175 _0113_
*176 _0114_
*177 _0115_
*178 _0116_
*179 _0117_
*180 _0118_
*181 _0119_
*182 _0120_
*183 _0121_
*184 _0122_
*185 _0123_
*186 _0124_
*187 _0125_
*188 _0126_
*189 _0127_
*190 _0128_
*191 _0129_
*192 _0130_
*193 _0131_
*194 _0132_
*195 _0133_
*196 _0134_
*197 _0135_
*198 _0136_
*199 _0137_
*200 _0138_
*201 _0139_
*202 _0140_
*203 _0141_
*204 _0142_
*205 _0143_
*206 _0144_
*207 _0145_
*208 _0146_
*209 _0147_
*210 _0148_
*211 _0149_
*212 _0150_
*213 _0151_
*214 _0152_
*215 _0153_
*216 _0154_
*217 _0155_
*218 _0156_
*219 _0157_
*220 _0158_
*221 _0159_
*222 _0160_
*223 _0161_
*224 _0162_
*225 _0163_
*226 _0164_
*227 _0165_
*228 _0166_
*229 _0167_
*230 _0168_
*231 _0169_
*232 _0170_
*233 _0171_
*234 _0172_
*235 _0173_
*236 _0174_
*237 _0175_
*238 _0176_
*239 _0177_
*240 _0178_
*241 _0179_
*242 _0180_
*243 _0181_
*244 _0182_
*245 _0183_
*246 _0184_
*247 _0185_
*248 _0186_
*249 _0187_
*250 _0188_
*251 _0189_
*252 _0190_
*253 _0191_
*254 _0192_
*255 _0193_
*256 _0194_
*257 _0195_
*258 _0196_
*259 _0197_
*260 _0198_
*261 _0199_
*262 _0200_
*263 _0201_
*264 _0202_
*265 _0203_
*266 _0204_
*267 _0205_
*268 _0206_
*269 _0207_
*270 _0208_
*271 _0209_
*272 _0210_
*273 _0211_
*274 _0212_
*275 _0213_
*276 _0214_
*277 _0215_
*278 _0216_
*279 _0217_
*280 _0218_
*281 _0219_
*282 _0220_
*283 _0221_
*284 _0222_
*285 _0223_
*286 _0224_
*287 _0225_
*288 _0226_
*289 _0227_
*290 _0228_
*291 _0229_
*292 _0230_
*293 _0231_
*294 _0232_
*295 _0233_
*296 _0234_
*297 _0235_
*298 _0236_
*299 _0237_
*300 _0238_
*301 _0239_
*302 _0240_
*303 _0241_
*304 _0242_
*305 _0243_
*306 _0244_
*307 _0245_
*308 _0246_
*309 _0247_
*310 _0248_
*311 _0249_
*312 _0250_
*313 _0251_
*314 _0252_
*315 _0253_
*316 _0254_
*317 _0255_
*318 _0256_
*319 _0257_
*320 _0258_
*321 _0259_
*322 _0260_
*323 _0261_
*324 _0262_
*325 _0263_
*326 _0264_
*327 _0265_
*328 _0266_
*329 _0267_
*330 _0268_
*331 _0269_
*332 _0270_
*333 _0271_
*334 _0272_
*335 _0273_
*336 _0274_
*337 _0275_
*338 _0276_
*339 _0277_
*340 _0278_
*341 _0279_
*342 _0280_
*343 _0281_
*344 _0282_
*345 _0283_
*346 _0284_
*347 _0285_
*348 _0286_
*349 _0287_
*350 _0288_
*351 _0289_
*352 _0290_
*353 _0291_
*354 _0292_
*355 _0293_
*356 _0294_
*357 _0295_
*358 _0296_
*359 _0297_
*360 _0298_
*361 _0299_
*362 _0300_
*363 _0301_
*364 _0302_
*365 _0303_
*366 _0304_
*367 _0305_
*368 _0306_
*369 _0307_
*370 _0308_
*371 _0309_
*372 _0310_
*373 _0311_
*374 _0312_
*375 _0313_
*376 _0314_
*377 _0315_
*378 _0316_
*379 _0317_
*380 _0318_
*381 _0319_
*382 _0320_
*383 _0321_
*384 _0322_
*385 _0323_
*386 _0324_
*387 _0325_
*388 _0326_
*389 _0327_
*390 _0328_
*391 _0329_
*392 _0330_
*393 _0331_
*394 _0332_
*395 _0333_
*396 _0334_
*397 _0335_
*398 _0336_
*399 _0337_
*400 _0338_
*401 _0339_
*402 _0340_
*403 _0341_
*404 _0342_
*405 _0343_
*406 _0344_
*407 _0345_
*408 _0346_
*409 _0347_
*410 _0348_
*411 _0349_
*412 _0350_
*413 _0351_
*414 _0352_
*415 _0353_
*416 _0354_
*417 _0355_
*418 _0356_
*419 _0357_
*420 _0358_
*421 _0359_
*422 _0360_
*423 _0361_
*424 _0362_
*425 _0363_
*426 _0364_
*427 _0365_
*428 _0366_
*429 _0367_
*430 _0368_
*431 _0369_
*432 _0370_
*433 _0371_
*434 _0372_
*435 _0373_
*436 _0374_
*437 _0375_
*438 _0376_
*439 _0377_
*440 _0378_
*441 _0379_
*442 _0380_
*443 _0381_
*444 _0382_
*445 _0383_
*446 _0384_
*447 _0385_
*448 _0386_
*449 _0387_
*450 _0388_
*451 _0389_
*452 _0390_
*453 _0391_
*454 _0392_
*455 _0393_
*456 _0394_
*457 _0395_
*458 _0396_
*459 _0397_
*460 _0398_
*461 _0399_
*462 _0400_
*463 _0401_
*464 _0402_
*465 _0403_
*466 _0404_
*467 _0405_
*468 _0406_
*469 _0407_
*470 _0408_
*471 _0409_
*472 _0410_
*473 _0411_
*474 _0412_
*475 _0413_
*476 _0414_
*477 _0415_
*478 _0416_
*479 _0417_
*480 _0418_
*481 _0419_
*482 _0420_
*483 _0421_
*484 _0422_
*485 _0423_
*486 _0424_
*487 _0425_
*488 _0426_
*489 _0427_
*490 _0428_
*491 _0429_
*492 _0430_
*493 _0431_
*494 _0432_
*495 _0433_
*496 _0434_
*497 _0435_
*498 _0436_
*499 _0437_
*500 _0438_
*501 _0439_
*502 _0440_
*503 _0441_
*504 _0442_
*505 _0443_
*506 _0444_
*507 _0445_
*508 _0446_
*509 _0447_
*510 _0448_
*511 _0449_
*512 _0450_
*513 _0451_
*514 _0452_
*515 _0453_
*516 _0454_
*517 _0455_
*518 _0456_
*519 _0457_
*520 _0458_
*521 _0459_
*522 _0460_
*523 _0461_
*524 _0462_
*525 _0463_
*526 _0464_
*527 _0465_
*528 _0466_
*529 _0467_
*530 _0468_
*531 _0469_
*532 _0470_
*533 _0471_
*534 _0472_
*535 _0473_
*536 _0474_
*537 _0475_
*538 _0476_
*539 _0477_
*540 _0478_
*541 _0479_
*542 _0480_
*543 _0481_
*544 _0482_
*545 _0483_
*546 _0484_
*547 _0485_
*548 _0486_
*549 _0487_
*550 _0488_
*551 clknet_0_clk
*552 clknet_1_0__leaf_clk
*553 clknet_1_1__leaf_clk
*554 flag
*555 net1
*556 net10
*557 net11
*558 net12
*559 net13
*560 net14
*561 net15
*562 net2
*563 net3
*564 net4
*565 net5
*566 net6
*567 net7
*568 net8
*569 net9
*570 overflow
*571 FILLER_0_0_109
*572 FILLER_0_0_113
*573 FILLER_0_0_125
*574 FILLER_0_0_137
*575 FILLER_0_0_141
*576 FILLER_0_0_15
*577 FILLER_0_0_153
*578 FILLER_0_0_165
*579 FILLER_0_0_169
*580 FILLER_0_0_181
*581 FILLER_0_0_193
*582 FILLER_0_0_197
*583 FILLER_0_0_209
*584 FILLER_0_0_221
*585 FILLER_0_0_225
*586 FILLER_0_0_237
*587 FILLER_0_0_249
*588 FILLER_0_0_253
*589 FILLER_0_0_265
*590 FILLER_0_0_27
*591 FILLER_0_0_277
*592 FILLER_0_0_281
*593 FILLER_0_0_29
*594 FILLER_0_0_293
*595 FILLER_0_0_3
*596 FILLER_0_0_305
*597 FILLER_0_0_309
*598 FILLER_0_0_321
*599 FILLER_0_0_333
*600 FILLER_0_0_337
*601 FILLER_0_0_349
*602 FILLER_0_0_41
*603 FILLER_0_0_53
*604 FILLER_0_0_57
*605 FILLER_0_0_69
*606 FILLER_0_0_81
*607 FILLER_0_0_85
*608 FILLER_0_0_97
*609 FILLER_0_10_109
*610 FILLER_0_10_121
*611 FILLER_0_10_133
*612 FILLER_0_10_139
*613 FILLER_0_10_141
*614 FILLER_0_10_15
*615 FILLER_0_10_153
*616 FILLER_0_10_165
*617 FILLER_0_10_177
*618 FILLER_0_10_189
*619 FILLER_0_10_195
*620 FILLER_0_10_197
*621 FILLER_0_10_209
*622 FILLER_0_10_221
*623 FILLER_0_10_233
*624 FILLER_0_10_245
*625 FILLER_0_10_251
*626 FILLER_0_10_253
*627 FILLER_0_10_265
*628 FILLER_0_10_27
*629 FILLER_0_10_277
*630 FILLER_0_10_289
*631 FILLER_0_10_29
*632 FILLER_0_10_3
*633 FILLER_0_10_301
*634 FILLER_0_10_307
*635 FILLER_0_10_309
*636 FILLER_0_10_321
*637 FILLER_0_10_333
*638 FILLER_0_10_345
*639 FILLER_0_10_41
*640 FILLER_0_10_53
*641 FILLER_0_10_65
*642 FILLER_0_10_77
*643 FILLER_0_10_83
*644 FILLER_0_10_85
*645 FILLER_0_10_97
*646 FILLER_0_11_105
*647 FILLER_0_11_111
*648 FILLER_0_11_113
*649 FILLER_0_11_125
*650 FILLER_0_11_137
*651 FILLER_0_11_149
*652 FILLER_0_11_15
*653 FILLER_0_11_161
*654 FILLER_0_11_167
*655 FILLER_0_11_169
*656 FILLER_0_11_181
*657 FILLER_0_11_193
*658 FILLER_0_11_205
*659 FILLER_0_11_217
*660 FILLER_0_11_223
*661 FILLER_0_11_225
*662 FILLER_0_11_237
*663 FILLER_0_11_249
*664 FILLER_0_11_261
*665 FILLER_0_11_27
*666 FILLER_0_11_273
*667 FILLER_0_11_279
*668 FILLER_0_11_281
*669 FILLER_0_11_293
*670 FILLER_0_11_3
*671 FILLER_0_11_305
*672 FILLER_0_11_317
*673 FILLER_0_11_329
*674 FILLER_0_11_335
*675 FILLER_0_11_337
*676 FILLER_0_11_349
*677 FILLER_0_11_39
*678 FILLER_0_11_51
*679 FILLER_0_11_55
*680 FILLER_0_11_57
*681 FILLER_0_11_69
*682 FILLER_0_11_81
*683 FILLER_0_11_93
*684 FILLER_0_12_109
*685 FILLER_0_12_121
*686 FILLER_0_12_133
*687 FILLER_0_12_139
*688 FILLER_0_12_141
*689 FILLER_0_12_15
*690 FILLER_0_12_153
*691 FILLER_0_12_165
*692 FILLER_0_12_177
*693 FILLER_0_12_189
*694 FILLER_0_12_195
*695 FILLER_0_12_197
*696 FILLER_0_12_209
*697 FILLER_0_12_221
*698 FILLER_0_12_233
*699 FILLER_0_12_245
*700 FILLER_0_12_251
*701 FILLER_0_12_253
*702 FILLER_0_12_265
*703 FILLER_0_12_27
*704 FILLER_0_12_277
*705 FILLER_0_12_289
*706 FILLER_0_12_29
*707 FILLER_0_12_3
*708 FILLER_0_12_301
*709 FILLER_0_12_307
*710 FILLER_0_12_309
*711 FILLER_0_12_321
*712 FILLER_0_12_333
*713 FILLER_0_12_345
*714 FILLER_0_12_41
*715 FILLER_0_12_53
*716 FILLER_0_12_65
*717 FILLER_0_12_77
*718 FILLER_0_12_83
*719 FILLER_0_12_85
*720 FILLER_0_12_97
*721 FILLER_0_13_105
*722 FILLER_0_13_111
*723 FILLER_0_13_113
*724 FILLER_0_13_125
*725 FILLER_0_13_137
*726 FILLER_0_13_149
*727 FILLER_0_13_15
*728 FILLER_0_13_161
*729 FILLER_0_13_167
*730 FILLER_0_13_169
*731 FILLER_0_13_181
*732 FILLER_0_13_193
*733 FILLER_0_13_205
*734 FILLER_0_13_217
*735 FILLER_0_13_223
*736 FILLER_0_13_225
*737 FILLER_0_13_237
*738 FILLER_0_13_249
*739 FILLER_0_13_261
*740 FILLER_0_13_27
*741 FILLER_0_13_273
*742 FILLER_0_13_279
*743 FILLER_0_13_281
*744 FILLER_0_13_293
*745 FILLER_0_13_3
*746 FILLER_0_13_305
*747 FILLER_0_13_317
*748 FILLER_0_13_329
*749 FILLER_0_13_335
*750 FILLER_0_13_337
*751 FILLER_0_13_349
*752 FILLER_0_13_39
*753 FILLER_0_13_51
*754 FILLER_0_13_55
*755 FILLER_0_13_57
*756 FILLER_0_13_69
*757 FILLER_0_13_81
*758 FILLER_0_13_93
*759 FILLER_0_14_109
*760 FILLER_0_14_121
*761 FILLER_0_14_133
*762 FILLER_0_14_139
*763 FILLER_0_14_141
*764 FILLER_0_14_15
*765 FILLER_0_14_153
*766 FILLER_0_14_165
*767 FILLER_0_14_177
*768 FILLER_0_14_189
*769 FILLER_0_14_195
*770 FILLER_0_14_197
*771 FILLER_0_14_209
*772 FILLER_0_14_221
*773 FILLER_0_14_233
*774 FILLER_0_14_245
*775 FILLER_0_14_251
*776 FILLER_0_14_253
*777 FILLER_0_14_265
*778 FILLER_0_14_27
*779 FILLER_0_14_277
*780 FILLER_0_14_289
*781 FILLER_0_14_29
*782 FILLER_0_14_3
*783 FILLER_0_14_301
*784 FILLER_0_14_307
*785 FILLER_0_14_309
*786 FILLER_0_14_321
*787 FILLER_0_14_333
*788 FILLER_0_14_345
*789 FILLER_0_14_41
*790 FILLER_0_14_53
*791 FILLER_0_14_65
*792 FILLER_0_14_77
*793 FILLER_0_14_83
*794 FILLER_0_14_85
*795 FILLER_0_14_97
*796 FILLER_0_15_105
*797 FILLER_0_15_111
*798 FILLER_0_15_113
*799 FILLER_0_15_125
*800 FILLER_0_15_137
*801 FILLER_0_15_149
*802 FILLER_0_15_15
*803 FILLER_0_15_161
*804 FILLER_0_15_167
*805 FILLER_0_15_169
*806 FILLER_0_15_181
*807 FILLER_0_15_193
*808 FILLER_0_15_205
*809 FILLER_0_15_217
*810 FILLER_0_15_223
*811 FILLER_0_15_225
*812 FILLER_0_15_237
*813 FILLER_0_15_249
*814 FILLER_0_15_261
*815 FILLER_0_15_27
*816 FILLER_0_15_273
*817 FILLER_0_15_279
*818 FILLER_0_15_281
*819 FILLER_0_15_293
*820 FILLER_0_15_3
*821 FILLER_0_15_305
*822 FILLER_0_15_317
*823 FILLER_0_15_329
*824 FILLER_0_15_335
*825 FILLER_0_15_337
*826 FILLER_0_15_349
*827 FILLER_0_15_39
*828 FILLER_0_15_51
*829 FILLER_0_15_55
*830 FILLER_0_15_57
*831 FILLER_0_15_69
*832 FILLER_0_15_81
*833 FILLER_0_15_93
*834 FILLER_0_16_109
*835 FILLER_0_16_121
*836 FILLER_0_16_133
*837 FILLER_0_16_139
*838 FILLER_0_16_141
*839 FILLER_0_16_15
*840 FILLER_0_16_153
*841 FILLER_0_16_165
*842 FILLER_0_16_177
*843 FILLER_0_16_189
*844 FILLER_0_16_195
*845 FILLER_0_16_197
*846 FILLER_0_16_209
*847 FILLER_0_16_221
*848 FILLER_0_16_233
*849 FILLER_0_16_245
*850 FILLER_0_16_251
*851 FILLER_0_16_253
*852 FILLER_0_16_265
*853 FILLER_0_16_27
*854 FILLER_0_16_277
*855 FILLER_0_16_289
*856 FILLER_0_16_29
*857 FILLER_0_16_3
*858 FILLER_0_16_301
*859 FILLER_0_16_307
*860 FILLER_0_16_309
*861 FILLER_0_16_321
*862 FILLER_0_16_333
*863 FILLER_0_16_345
*864 FILLER_0_16_41
*865 FILLER_0_16_53
*866 FILLER_0_16_65
*867 FILLER_0_16_77
*868 FILLER_0_16_83
*869 FILLER_0_16_85
*870 FILLER_0_16_97
*871 FILLER_0_17_105
*872 FILLER_0_17_111
*873 FILLER_0_17_113
*874 FILLER_0_17_125
*875 FILLER_0_17_137
*876 FILLER_0_17_149
*877 FILLER_0_17_15
*878 FILLER_0_17_161
*879 FILLER_0_17_167
*880 FILLER_0_17_169
*881 FILLER_0_17_174
*882 FILLER_0_17_186
*883 FILLER_0_17_198
*884 FILLER_0_17_210
*885 FILLER_0_17_222
*886 FILLER_0_17_225
*887 FILLER_0_17_237
*888 FILLER_0_17_249
*889 FILLER_0_17_261
*890 FILLER_0_17_27
*891 FILLER_0_17_273
*892 FILLER_0_17_279
*893 FILLER_0_17_281
*894 FILLER_0_17_293
*895 FILLER_0_17_3
*896 FILLER_0_17_305
*897 FILLER_0_17_317
*898 FILLER_0_17_329
*899 FILLER_0_17_335
*900 FILLER_0_17_337
*901 FILLER_0_17_349
*902 FILLER_0_17_39
*903 FILLER_0_17_51
*904 FILLER_0_17_55
*905 FILLER_0_17_57
*906 FILLER_0_17_69
*907 FILLER_0_17_81
*908 FILLER_0_17_93
*909 FILLER_0_18_118
*910 FILLER_0_18_130
*911 FILLER_0_18_138
*912 FILLER_0_18_141
*913 FILLER_0_18_15
*914 FILLER_0_18_153
*915 FILLER_0_18_161
*916 FILLER_0_18_172
*917 FILLER_0_18_181
*918 FILLER_0_18_195
*919 FILLER_0_18_211
*920 FILLER_0_18_223
*921 FILLER_0_18_235
*922 FILLER_0_18_247
*923 FILLER_0_18_251
*924 FILLER_0_18_253
*925 FILLER_0_18_265
*926 FILLER_0_18_27
*927 FILLER_0_18_277
*928 FILLER_0_18_289
*929 FILLER_0_18_29
*930 FILLER_0_18_3
*931 FILLER_0_18_301
*932 FILLER_0_18_307
*933 FILLER_0_18_309
*934 FILLER_0_18_321
*935 FILLER_0_18_333
*936 FILLER_0_18_345
*937 FILLER_0_18_41
*938 FILLER_0_18_53
*939 FILLER_0_18_65
*940 FILLER_0_18_77
*941 FILLER_0_18_83
*942 FILLER_0_18_85
*943 FILLER_0_18_97
*944 FILLER_0_19_103
*945 FILLER_0_19_111
*946 FILLER_0_19_119
*947 FILLER_0_19_127
*948 FILLER_0_19_135
*949 FILLER_0_19_147
*950 FILLER_0_19_15
*951 FILLER_0_19_159
*952 FILLER_0_19_167
*953 FILLER_0_19_169
*954 FILLER_0_19_182
*955 FILLER_0_19_194
*956 FILLER_0_19_200
*957 FILLER_0_19_209
*958 FILLER_0_19_221
*959 FILLER_0_19_225
*960 FILLER_0_19_233
*961 FILLER_0_19_244
*962 FILLER_0_19_256
*963 FILLER_0_19_263
*964 FILLER_0_19_27
*965 FILLER_0_19_281
*966 FILLER_0_19_293
*967 FILLER_0_19_3
*968 FILLER_0_19_305
*969 FILLER_0_19_317
*970 FILLER_0_19_329
*971 FILLER_0_19_335
*972 FILLER_0_19_337
*973 FILLER_0_19_349
*974 FILLER_0_19_39
*975 FILLER_0_19_51
*976 FILLER_0_19_55
*977 FILLER_0_19_57
*978 FILLER_0_19_74
*979 FILLER_0_19_82
*980 FILLER_0_19_91
*981 FILLER_0_1_105
*982 FILLER_0_1_111
*983 FILLER_0_1_113
*984 FILLER_0_1_125
*985 FILLER_0_1_137
*986 FILLER_0_1_149
*987 FILLER_0_1_15
*988 FILLER_0_1_161
*989 FILLER_0_1_167
*990 FILLER_0_1_169
*991 FILLER_0_1_181
*992 FILLER_0_1_193
*993 FILLER_0_1_205
*994 FILLER_0_1_217
*995 FILLER_0_1_223
*996 FILLER_0_1_225
*997 FILLER_0_1_237
*998 FILLER_0_1_249
*999 FILLER_0_1_261
*1000 FILLER_0_1_27
*1001 FILLER_0_1_273
*1002 FILLER_0_1_279
*1003 FILLER_0_1_281
*1004 FILLER_0_1_293
*1005 FILLER_0_1_3
*1006 FILLER_0_1_305
*1007 FILLER_0_1_317
*1008 FILLER_0_1_329
*1009 FILLER_0_1_335
*1010 FILLER_0_1_337
*1011 FILLER_0_1_349
*1012 FILLER_0_1_39
*1013 FILLER_0_1_51
*1014 FILLER_0_1_55
*1015 FILLER_0_1_57
*1016 FILLER_0_1_69
*1017 FILLER_0_1_81
*1018 FILLER_0_1_93
*1019 FILLER_0_20_104
*1020 FILLER_0_20_108
*1021 FILLER_0_20_116
*1022 FILLER_0_20_139
*1023 FILLER_0_20_141
*1024 FILLER_0_20_147
*1025 FILLER_0_20_15
*1026 FILLER_0_20_166
*1027 FILLER_0_20_176
*1028 FILLER_0_20_184
*1029 FILLER_0_20_193
*1030 FILLER_0_20_197
*1031 FILLER_0_20_208
*1032 FILLER_0_20_231
*1033 FILLER_0_20_253
*1034 FILLER_0_20_264
*1035 FILLER_0_20_268
*1036 FILLER_0_20_27
*1037 FILLER_0_20_282
*1038 FILLER_0_20_29
*1039 FILLER_0_20_297
*1040 FILLER_0_20_3
*1041 FILLER_0_20_301
*1042 FILLER_0_20_309
*1043 FILLER_0_20_321
*1044 FILLER_0_20_333
*1045 FILLER_0_20_345
*1046 FILLER_0_20_41
*1047 FILLER_0_20_53
*1048 FILLER_0_20_65
*1049 FILLER_0_20_77
*1050 FILLER_0_20_83
*1051 FILLER_0_20_92
*1052 FILLER_0_21_109
*1053 FILLER_0_21_113
*1054 FILLER_0_21_125
*1055 FILLER_0_21_137
*1056 FILLER_0_21_149
*1057 FILLER_0_21_15
*1058 FILLER_0_21_161
*1059 FILLER_0_21_167
*1060 FILLER_0_21_169
*1061 FILLER_0_21_187
*1062 FILLER_0_21_199
*1063 FILLER_0_21_211
*1064 FILLER_0_21_223
*1065 FILLER_0_21_225
*1066 FILLER_0_21_231
*1067 FILLER_0_21_244
*1068 FILLER_0_21_256
*1069 FILLER_0_21_268
*1070 FILLER_0_21_27
*1071 FILLER_0_21_289
*1072 FILLER_0_21_3
*1073 FILLER_0_21_301
*1074 FILLER_0_21_307
*1075 FILLER_0_21_317
*1076 FILLER_0_21_323
*1077 FILLER_0_21_337
*1078 FILLER_0_21_349
*1079 FILLER_0_21_39
*1080 FILLER_0_21_51
*1081 FILLER_0_21_55
*1082 FILLER_0_21_70
*1083 FILLER_0_21_78
*1084 FILLER_0_21_97
*1085 FILLER_0_22_116
*1086 FILLER_0_22_122
*1087 FILLER_0_22_130
*1088 FILLER_0_22_137
*1089 FILLER_0_22_15
*1090 FILLER_0_22_158
*1091 FILLER_0_22_170
*1092 FILLER_0_22_186
*1093 FILLER_0_22_194
*1094 FILLER_0_22_204
*1095 FILLER_0_22_221
*1096 FILLER_0_22_232
*1097 FILLER_0_22_236
*1098 FILLER_0_22_244
*1099 FILLER_0_22_267
*1100 FILLER_0_22_27
*1101 FILLER_0_22_275
*1102 FILLER_0_22_288
*1103 FILLER_0_22_29
*1104 FILLER_0_22_292
*1105 FILLER_0_22_3
*1106 FILLER_0_22_306
*1107 FILLER_0_22_309
*1108 FILLER_0_22_318
*1109 FILLER_0_22_339
*1110 FILLER_0_22_37
*1111 FILLER_0_22_44
*1112 FILLER_0_22_56
*1113 FILLER_0_22_71
*1114 FILLER_0_22_83
*1115 FILLER_0_22_96
*1116 FILLER_0_23_102
*1117 FILLER_0_23_110
*1118 FILLER_0_23_113
*1119 FILLER_0_23_131
*1120 FILLER_0_23_138
*1121 FILLER_0_23_15
*1122 FILLER_0_23_150
*1123 FILLER_0_23_158
*1124 FILLER_0_23_167
*1125 FILLER_0_23_172
*1126 FILLER_0_23_184
*1127 FILLER_0_23_193
*1128 FILLER_0_23_197
*1129 FILLER_0_23_203
*1130 FILLER_0_23_209
*1131 FILLER_0_23_213
*1132 FILLER_0_23_221
*1133 FILLER_0_23_239
*1134 FILLER_0_23_243
*1135 FILLER_0_23_255
*1136 FILLER_0_23_262
*1137 FILLER_0_23_27
*1138 FILLER_0_23_274
*1139 FILLER_0_23_281
*1140 FILLER_0_23_289
*1141 FILLER_0_23_296
*1142 FILLER_0_23_3
*1143 FILLER_0_23_308
*1144 FILLER_0_23_315
*1145 FILLER_0_23_319
*1146 FILLER_0_23_330
*1147 FILLER_0_23_337
*1148 FILLER_0_23_349
*1149 FILLER_0_23_35
*1150 FILLER_0_23_50
*1151 FILLER_0_23_57
*1152 FILLER_0_23_72
*1153 FILLER_0_23_78
*1154 FILLER_0_23_86
*1155 FILLER_0_23_90
*1156 FILLER_0_24_100
*1157 FILLER_0_24_119
*1158 FILLER_0_24_131
*1159 FILLER_0_24_139
*1160 FILLER_0_24_145
*1161 FILLER_0_24_15
*1162 FILLER_0_24_165
*1163 FILLER_0_24_177
*1164 FILLER_0_24_185
*1165 FILLER_0_24_189
*1166 FILLER_0_24_195
*1167 FILLER_0_24_221
*1168 FILLER_0_24_23
*1169 FILLER_0_24_233
*1170 FILLER_0_24_245
*1171 FILLER_0_24_251
*1172 FILLER_0_24_253
*1173 FILLER_0_24_265
*1174 FILLER_0_24_27
*1175 FILLER_0_24_286
*1176 FILLER_0_24_3
*1177 FILLER_0_24_315
*1178 FILLER_0_24_327
*1179 FILLER_0_24_331
*1180 FILLER_0_24_341
*1181 FILLER_0_24_347
*1182 FILLER_0_24_35
*1183 FILLER_0_24_47
*1184 FILLER_0_24_59
*1185 FILLER_0_24_67
*1186 FILLER_0_24_79
*1187 FILLER_0_24_83
*1188 FILLER_0_24_85
*1189 FILLER_0_24_92
*1190 FILLER_0_25_101
*1191 FILLER_0_25_109
*1192 FILLER_0_25_118
*1193 FILLER_0_25_130
*1194 FILLER_0_25_141
*1195 FILLER_0_25_15
*1196 FILLER_0_25_153
*1197 FILLER_0_25_165
*1198 FILLER_0_25_169
*1199 FILLER_0_25_186
*1200 FILLER_0_25_198
*1201 FILLER_0_25_205
*1202 FILLER_0_25_213
*1203 FILLER_0_25_221
*1204 FILLER_0_25_250
*1205 FILLER_0_25_258
*1206 FILLER_0_25_27
*1207 FILLER_0_25_272
*1208 FILLER_0_25_281
*1209 FILLER_0_25_291
*1210 FILLER_0_25_3
*1211 FILLER_0_25_303
*1212 FILLER_0_25_331
*1213 FILLER_0_25_335
*1214 FILLER_0_25_35
*1215 FILLER_0_25_350
*1216 FILLER_0_25_49
*1217 FILLER_0_25_55
*1218 FILLER_0_25_57
*1219 FILLER_0_25_65
*1220 FILLER_0_25_77
*1221 FILLER_0_25_83
*1222 FILLER_0_25_91
*1223 FILLER_0_26_105
*1224 FILLER_0_26_11
*1225 FILLER_0_26_113
*1226 FILLER_0_26_127
*1227 FILLER_0_26_133
*1228 FILLER_0_26_141
*1229 FILLER_0_26_149
*1230 FILLER_0_26_155
*1231 FILLER_0_26_172
*1232 FILLER_0_26_184
*1233 FILLER_0_26_197
*1234 FILLER_0_26_217
*1235 FILLER_0_26_22
*1236 FILLER_0_26_223
*1237 FILLER_0_26_235
*1238 FILLER_0_26_243
*1239 FILLER_0_26_249
*1240 FILLER_0_26_253
*1241 FILLER_0_26_263
*1242 FILLER_0_26_278
*1243 FILLER_0_26_287
*1244 FILLER_0_26_29
*1245 FILLER_0_26_295
*1246 FILLER_0_26_3
*1247 FILLER_0_26_307
*1248 FILLER_0_26_309
*1249 FILLER_0_26_322
*1250 FILLER_0_26_330
*1251 FILLER_0_26_339
*1252 FILLER_0_26_345
*1253 FILLER_0_26_349
*1254 FILLER_0_26_37
*1255 FILLER_0_26_44
*1256 FILLER_0_26_56
*1257 FILLER_0_26_74
*1258 FILLER_0_26_83
*1259 FILLER_0_26_85
*1260 FILLER_0_26_97
*1261 FILLER_0_27_110
*1262 FILLER_0_27_126
*1263 FILLER_0_27_147
*1264 FILLER_0_27_15
*1265 FILLER_0_27_155
*1266 FILLER_0_27_174
*1267 FILLER_0_27_182
*1268 FILLER_0_27_197
*1269 FILLER_0_27_209
*1270 FILLER_0_27_217
*1271 FILLER_0_27_236
*1272 FILLER_0_27_240
*1273 FILLER_0_27_258
*1274 FILLER_0_27_277
*1275 FILLER_0_27_281
*1276 FILLER_0_27_299
*1277 FILLER_0_27_3
*1278 FILLER_0_27_32
*1279 FILLER_0_27_322
*1280 FILLER_0_27_350
*1281 FILLER_0_27_47
*1282 FILLER_0_27_55
*1283 FILLER_0_27_57
*1284 FILLER_0_27_73
*1285 FILLER_0_27_95
*1286 FILLER_0_28_104
*1287 FILLER_0_28_116
*1288 FILLER_0_28_123
*1289 FILLER_0_28_135
*1290 FILLER_0_28_139
*1291 FILLER_0_28_141
*1292 FILLER_0_28_149
*1293 FILLER_0_28_15
*1294 FILLER_0_28_155
*1295 FILLER_0_28_161
*1296 FILLER_0_28_173
*1297 FILLER_0_28_177
*1298 FILLER_0_28_195
*1299 FILLER_0_28_197
*1300 FILLER_0_28_214
*1301 FILLER_0_28_236
*1302 FILLER_0_28_248
*1303 FILLER_0_28_265
*1304 FILLER_0_28_27
*1305 FILLER_0_28_272
*1306 FILLER_0_28_29
*1307 FILLER_0_28_3
*1308 FILLER_0_28_306
*1309 FILLER_0_28_309
*1310 FILLER_0_28_317
*1311 FILLER_0_28_33
*1312 FILLER_0_28_342
*1313 FILLER_0_28_350
*1314 FILLER_0_28_41
*1315 FILLER_0_28_53
*1316 FILLER_0_28_62
*1317 FILLER_0_28_74
*1318 FILLER_0_28_82
*1319 FILLER_0_28_91
*1320 FILLER_0_29_108
*1321 FILLER_0_29_113
*1322 FILLER_0_29_122
*1323 FILLER_0_29_128
*1324 FILLER_0_29_134
*1325 FILLER_0_29_156
*1326 FILLER_0_29_183
*1327 FILLER_0_29_195
*1328 FILLER_0_29_199
*1329 FILLER_0_29_208
*1330 FILLER_0_29_216
*1331 FILLER_0_29_225
*1332 FILLER_0_29_233
*1333 FILLER_0_29_261
*1334 FILLER_0_29_27
*1335 FILLER_0_29_279
*1336 FILLER_0_29_3
*1337 FILLER_0_29_322
*1338 FILLER_0_29_326
*1339 FILLER_0_29_333
*1340 FILLER_0_29_337
*1341 FILLER_0_29_345
*1342 FILLER_0_29_35
*1343 FILLER_0_29_45
*1344 FILLER_0_29_53
*1345 FILLER_0_29_62
*1346 FILLER_0_29_83
*1347 FILLER_0_29_92
*1348 FILLER_0_2_109
*1349 FILLER_0_2_121
*1350 FILLER_0_2_133
*1351 FILLER_0_2_139
*1352 FILLER_0_2_141
*1353 FILLER_0_2_15
*1354 FILLER_0_2_153
*1355 FILLER_0_2_165
*1356 FILLER_0_2_177
*1357 FILLER_0_2_189
*1358 FILLER_0_2_195
*1359 FILLER_0_2_197
*1360 FILLER_0_2_209
*1361 FILLER_0_2_221
*1362 FILLER_0_2_233
*1363 FILLER_0_2_245
*1364 FILLER_0_2_251
*1365 FILLER_0_2_253
*1366 FILLER_0_2_265
*1367 FILLER_0_2_27
*1368 FILLER_0_2_277
*1369 FILLER_0_2_289
*1370 FILLER_0_2_29
*1371 FILLER_0_2_3
*1372 FILLER_0_2_301
*1373 FILLER_0_2_307
*1374 FILLER_0_2_309
*1375 FILLER_0_2_321
*1376 FILLER_0_2_333
*1377 FILLER_0_2_345
*1378 FILLER_0_2_41
*1379 FILLER_0_2_53
*1380 FILLER_0_2_65
*1381 FILLER_0_2_77
*1382 FILLER_0_2_83
*1383 FILLER_0_2_85
*1384 FILLER_0_2_97
*1385 FILLER_0_30_109
*1386 FILLER_0_30_113
*1387 FILLER_0_30_124
*1388 FILLER_0_30_136
*1389 FILLER_0_30_148
*1390 FILLER_0_30_15
*1391 FILLER_0_30_156
*1392 FILLER_0_30_169
*1393 FILLER_0_30_180
*1394 FILLER_0_30_193
*1395 FILLER_0_30_197
*1396 FILLER_0_30_226
*1397 FILLER_0_30_239
*1398 FILLER_0_30_251
*1399 FILLER_0_30_256
*1400 FILLER_0_30_268
*1401 FILLER_0_30_27
*1402 FILLER_0_30_275
*1403 FILLER_0_30_29
*1404 FILLER_0_30_296
*1405 FILLER_0_30_3
*1406 FILLER_0_30_302
*1407 FILLER_0_30_309
*1408 FILLER_0_30_313
*1409 FILLER_0_30_323
*1410 FILLER_0_30_350
*1411 FILLER_0_30_43
*1412 FILLER_0_30_49
*1413 FILLER_0_30_65
*1414 FILLER_0_30_77
*1415 FILLER_0_30_85
*1416 FILLER_0_30_97
*1417 FILLER_0_31_106
*1418 FILLER_0_31_113
*1419 FILLER_0_31_119
*1420 FILLER_0_31_127
*1421 FILLER_0_31_15
*1422 FILLER_0_31_151
*1423 FILLER_0_31_161
*1424 FILLER_0_31_167
*1425 FILLER_0_31_169
*1426 FILLER_0_31_177
*1427 FILLER_0_31_182
*1428 FILLER_0_31_201
*1429 FILLER_0_31_208
*1430 FILLER_0_31_214
*1431 FILLER_0_31_222
*1432 FILLER_0_31_225
*1433 FILLER_0_31_233
*1434 FILLER_0_31_240
*1435 FILLER_0_31_245
*1436 FILLER_0_31_249
*1437 FILLER_0_31_253
*1438 FILLER_0_31_27
*1439 FILLER_0_31_271
*1440 FILLER_0_31_279
*1441 FILLER_0_31_296
*1442 FILLER_0_31_3
*1443 FILLER_0_31_329
*1444 FILLER_0_31_335
*1445 FILLER_0_31_337
*1446 FILLER_0_31_344
*1447 FILLER_0_31_350
*1448 FILLER_0_31_41
*1449 FILLER_0_31_53
*1450 FILLER_0_31_64
*1451 FILLER_0_31_84
*1452 FILLER_0_31_90
*1453 FILLER_0_32_114
*1454 FILLER_0_32_120
*1455 FILLER_0_32_127
*1456 FILLER_0_32_139
*1457 FILLER_0_32_141
*1458 FILLER_0_32_15
*1459 FILLER_0_32_157
*1460 FILLER_0_32_174
*1461 FILLER_0_32_192
*1462 FILLER_0_32_197
*1463 FILLER_0_32_203
*1464 FILLER_0_32_209
*1465 FILLER_0_32_231
*1466 FILLER_0_32_239
*1467 FILLER_0_32_248
*1468 FILLER_0_32_256
*1469 FILLER_0_32_264
*1470 FILLER_0_32_27
*1471 FILLER_0_32_274
*1472 FILLER_0_32_280
*1473 FILLER_0_32_29
*1474 FILLER_0_32_3
*1475 FILLER_0_32_348
*1476 FILLER_0_32_47
*1477 FILLER_0_32_60
*1478 FILLER_0_32_72
*1479 FILLER_0_32_81
*1480 FILLER_0_32_85
*1481 FILLER_0_32_97
*1482 FILLER_0_33_111
*1483 FILLER_0_33_113
*1484 FILLER_0_33_119
*1485 FILLER_0_33_125
*1486 FILLER_0_33_137
*1487 FILLER_0_33_148
*1488 FILLER_0_33_15
*1489 FILLER_0_33_160
*1490 FILLER_0_33_169
*1491 FILLER_0_33_181
*1492 FILLER_0_33_193
*1493 FILLER_0_33_212
*1494 FILLER_0_33_225
*1495 FILLER_0_33_233
*1496 FILLER_0_33_240
*1497 FILLER_0_33_248
*1498 FILLER_0_33_254
*1499 FILLER_0_33_262
*1500 FILLER_0_33_27
*1501 FILLER_0_33_274
*1502 FILLER_0_33_281
*1503 FILLER_0_33_3
*1504 FILLER_0_33_318
*1505 FILLER_0_33_337
*1506 FILLER_0_33_349
*1507 FILLER_0_33_40
*1508 FILLER_0_33_52
*1509 FILLER_0_33_57
*1510 FILLER_0_33_93
*1511 FILLER_0_34_11
*1512 FILLER_0_34_114
*1513 FILLER_0_34_118
*1514 FILLER_0_34_129
*1515 FILLER_0_34_136
*1516 FILLER_0_34_141
*1517 FILLER_0_34_159
*1518 FILLER_0_34_174
*1519 FILLER_0_34_188
*1520 FILLER_0_34_197
*1521 FILLER_0_34_207
*1522 FILLER_0_34_211
*1523 FILLER_0_34_221
*1524 FILLER_0_34_227
*1525 FILLER_0_34_240
*1526 FILLER_0_34_251
*1527 FILLER_0_34_265
*1528 FILLER_0_34_27
*1529 FILLER_0_34_273
*1530 FILLER_0_34_283
*1531 FILLER_0_34_295
*1532 FILLER_0_34_3
*1533 FILLER_0_34_307
*1534 FILLER_0_34_325
*1535 FILLER_0_34_343
*1536 FILLER_0_34_35
*1537 FILLER_0_34_60
*1538 FILLER_0_34_69
*1539 FILLER_0_34_81
*1540 FILLER_0_34_85
*1541 FILLER_0_34_96
*1542 FILLER_0_35_110
*1543 FILLER_0_35_116
*1544 FILLER_0_35_122
*1545 FILLER_0_35_126
*1546 FILLER_0_35_15
*1547 FILLER_0_35_152
*1548 FILLER_0_35_160
*1549 FILLER_0_35_164
*1550 FILLER_0_35_169
*1551 FILLER_0_35_181
*1552 FILLER_0_35_19
*1553 FILLER_0_35_190
*1554 FILLER_0_35_198
*1555 FILLER_0_35_212
*1556 FILLER_0_35_230
*1557 FILLER_0_35_241
*1558 FILLER_0_35_248
*1559 FILLER_0_35_25
*1560 FILLER_0_35_254
*1561 FILLER_0_35_278
*1562 FILLER_0_35_281
*1563 FILLER_0_35_287
*1564 FILLER_0_35_3
*1565 FILLER_0_35_306
*1566 FILLER_0_35_324
*1567 FILLER_0_35_328
*1568 FILLER_0_35_332
*1569 FILLER_0_35_337
*1570 FILLER_0_35_346
*1571 FILLER_0_35_350
*1572 FILLER_0_35_37
*1573 FILLER_0_35_49
*1574 FILLER_0_35_55
*1575 FILLER_0_35_57
*1576 FILLER_0_35_61
*1577 FILLER_0_35_72
*1578 FILLER_0_35_76
*1579 FILLER_0_35_91
*1580 FILLER_0_36_108
*1581 FILLER_0_36_141
*1582 FILLER_0_36_15
*1583 FILLER_0_36_150
*1584 FILLER_0_36_162
*1585 FILLER_0_36_190
*1586 FILLER_0_36_197
*1587 FILLER_0_36_212
*1588 FILLER_0_36_226
*1589 FILLER_0_36_25
*1590 FILLER_0_36_259
*1591 FILLER_0_36_275
*1592 FILLER_0_36_287
*1593 FILLER_0_36_299
*1594 FILLER_0_36_3
*1595 FILLER_0_36_330
*1596 FILLER_0_36_349
*1597 FILLER_0_36_36
*1598 FILLER_0_36_48
*1599 FILLER_0_36_68
*1600 FILLER_0_36_76
*1601 FILLER_0_37_103
*1602 FILLER_0_37_111
*1603 FILLER_0_37_119
*1604 FILLER_0_37_134
*1605 FILLER_0_37_138
*1606 FILLER_0_37_146
*1607 FILLER_0_37_15
*1608 FILLER_0_37_154
*1609 FILLER_0_37_161
*1610 FILLER_0_37_167
*1611 FILLER_0_37_172
*1612 FILLER_0_37_184
*1613 FILLER_0_37_188
*1614 FILLER_0_37_197
*1615 FILLER_0_37_214
*1616 FILLER_0_37_222
*1617 FILLER_0_37_233
*1618 FILLER_0_37_245
*1619 FILLER_0_37_258
*1620 FILLER_0_37_263
*1621 FILLER_0_37_27
*1622 FILLER_0_37_278
*1623 FILLER_0_37_281
*1624 FILLER_0_37_3
*1625 FILLER_0_37_305
*1626 FILLER_0_37_337
*1627 FILLER_0_37_349
*1628 FILLER_0_37_35
*1629 FILLER_0_37_45
*1630 FILLER_0_37_53
*1631 FILLER_0_37_69
*1632 FILLER_0_38_107
*1633 FILLER_0_38_111
*1634 FILLER_0_38_119
*1635 FILLER_0_38_126
*1636 FILLER_0_38_138
*1637 FILLER_0_38_14
*1638 FILLER_0_38_160
*1639 FILLER_0_38_165
*1640 FILLER_0_38_175
*1641 FILLER_0_38_18
*1642 FILLER_0_38_188
*1643 FILLER_0_38_218
*1644 FILLER_0_38_22
*1645 FILLER_0_38_222
*1646 FILLER_0_38_278
*1647 FILLER_0_38_296
*1648 FILLER_0_38_3
*1649 FILLER_0_38_318
*1650 FILLER_0_38_32