*SPEF "ieee 1481-1999"
*DESIGN "tt_um_thorkn_pwmaudio"
*DATE "11:11:11 Fri 11 11, 1111"
*VENDOR "OpenRCX"
*PROGRAM "Parallel Extraction"
*VERSION "1.0"
*DESIGN_FLOW "NAME_SCOPE LOCAL" "PIN_CAP NONE"
*DIVIDER /
*DELIMITER :
*BUS_DELIMITER []
*T_UNIT 1 NS
*C_UNIT 1 PF
*R_UNIT 1 OHM
*L_UNIT 1 HENRY

*NAME_MAP
*3 clk
*4 ena
*5 rst_n
*6 ui_in[0]
*7 ui_in[1]
*8 ui_in[2]
*9 ui_in[3]
*10 ui_in[4]
*11 ui_in[5]
*12 ui_in[6]
*13 ui_in[7]
*14 uio_in[0]
*15 uio_in[1]
*16 uio_in[2]
*17 uio_in[3]
*18 uio_in[4]
*19 uio_in[5]
*20 uio_in[6]
*21 uio_in[7]
*22 net10
*23 net11
*24 net12
*25 net13
*26 net14
*27 net15
*28 net16
*29 net17
*30 net18
*31 net19
*32 net20
*33 net21
*34 net22
*35 net23
*36 net24
*37 net25
*38 uo_out[0]
*39 uo_out[1]
*40 net26
*41 net27
*42 net28
*43 net29
*44 net30
*45 net31
*46 _000_
*47 _001_
*48 _002_
*49 _003_
*50 _004_
*51 _005_
*52 _006_
*53 _007_
*54 _008_
*55 _009_
*56 _010_
*57 _011_
*58 _012_
*59 _013_
*60 _014_
*61 _015_
*62 _016_
*63 _017_
*64 _018_
*65 _019_
*66 _020_
*67 _021_
*68 _022_
*69 _023_
*70 _024_
*71 _025_
*72 _026_
*73 _027_
*74 _028_
*75 _029_
*76 _030_
*77 _031_
*78 _032_
*79 _033_
*80 _034_
*81 _035_
*82 _036_
*83 _037_
*84 _038_
*85 _039_
*86 _040_
*87 _041_
*88 _042_
*89 _043_
*90 _044_
*91 _045_
*92 _046_
*93 _047_
*94 _048_
*95 _049_
*96 _050_
*97 _051_
*98 _052_
*99 _053_
*100 _054_
*101 _055_
*102 _056_
*103 _057_
*104 _058_
*105 _059_
*106 _060_
*107 _061_
*108 _062_
*109 _063_
*110 _064_
*111 _065_
*112 _066_
*113 _067_
*114 _068_
*115 _069_
*116 _070_
*117 _071_
*118 _072_
*119 _073_
*120 _074_
*121 _075_
*122 _076_
*123 _077_
*124 _078_
*125 _079_
*126 _080_
*127 _081_
*128 _082_
*129 _083_
*130 _084_
*131 _085_
*132 _086_
*133 _087_
*134 _088_
*135 _089_
*136 _090_
*137 _091_
*138 _092_
*139 _093_
*140 _094_
*141 _095_
*142 _096_
*143 _097_
*144 _098_
*145 _099_
*146 _100_
*147 _101_
*148 _102_
*149 _103_
*150 _104_
*151 _105_
*152 _106_
*153 _107_
*154 _108_
*155 _109_
*156 _110_
*157 _111_
*158 _112_
*159 _113_
*160 _114_
*161 _115_
*162 _116_
*163 _117_
*164 _118_
*165 _119_
*166 _120_
*167 _121_
*168 _122_
*169 _123_
*170 _124_
*171 _125_
*172 _126_
*173 _127_
*174 _128_
*175 _129_
*176 _130_
*177 _131_
*178 _132_
*179 _133_
*180 _134_
*181 _135_
*182 _136_
*183 _137_
*184 _138_
*185 _139_
*186 _140_
*187 _141_
*188 _142_
*189 _143_
*190 _144_
*191 _145_
*192 _146_
*193 _147_
*194 _148_
*195 _149_
*196 _150_
*197 _151_
*198 _152_
*199 _153_
*200 _154_
*201 _155_
*202 _156_
*203 _157_
*204 _158_
*205 _159_
*206 _160_
*207 _161_
*208 _162_
*209 _163_
*210 _164_
*211 _165_
*212 _166_
*213 _167_
*214 _168_
*215 _169_
*216 _170_
*217 _171_
*218 _172_
*219 _173_
*220 _174_
*221 _175_
*222 _176_
*223 _177_
*224 _178_
*225 _179_
*226 _180_
*227 _181_
*228 _182_
*229 _183_
*230 _184_
*231 _185_
*232 _186_
*233 _187_
*234 _188_
*235 _189_
*236 _190_
*237 _191_
*238 _192_
*239 _193_
*240 _194_
*241 _195_
*242 _196_
*243 _197_
*244 _198_
*245 _199_
*246 _200_
*247 _201_
*248 _202_
*249 _203_
*250 _204_
*251 _205_
*252 _206_
*253 _207_
*254 _208_
*255 _209_
*256 _210_
*257 _211_
*258 _212_
*259 _213_
*260 _214_
*261 _215_
*262 _216_
*263 _217_
*264 _218_
*265 _219_
*266 _220_
*267 _221_
*268 _222_
*269 _223_
*270 _224_
*271 _225_
*272 _226_
*273 _227_
*274 _228_
*275 _229_
*276 _230_
*277 _231_
*278 _232_
*279 _233_
*280 _234_
*281 _235_
*282 _236_
*283 _237_
*284 _238_
*285 _239_
*286 _240_
*287 _241_
*288 _242_
*289 _243_
*290 _244_
*291 _245_
*292 _246_
*293 _247_
*294 _248_
*295 _249_
*296 _250_
*297 _251_
*298 _252_
*299 _253_
*300 _254_
*301 _255_
*302 _256_
*303 _257_
*304 _258_
*305 _259_
*306 _260_
*307 _261_
*308 _262_
*309 _263_
*310 _264_
*311 _265_
*312 _266_
*313 _267_
*314 _268_
*315 _269_
*316 clknet_0_clk
*317 clknet_3_0__leaf_clk
*318 clknet_3_1__leaf_clk
*319 clknet_3_2__leaf_clk
*320 clknet_3_3__leaf_clk
*321 clknet_3_4__leaf_clk
*322 clknet_3_5__leaf_clk
*323 clknet_3_6__leaf_clk
*324 clknet_3_7__leaf_clk
*325 net1
*326 net2
*327 net3
*328 net32
*329 net33
*330 net34
*331 net35
*332 net36
*333 net37
*334 net38
*335 net39
*336 net4
*337 net40
*338 net41
*339 net42
*340 net43
*341 net44
*342 net45
*343 net46
*344 net47
*345 net48
*346 net49
*347 net5
*348 net50
*349 net51
*350 net52
*351 net53
*352 net54
*353 net55
*354 net56
*355 net57
*356 net58
*357 net59
*358 net6
*359 net60
*360 net61
*361 net62
*362 net63
*363 net64
*364 net65
*365 net66
*366 net67
*367 net68
*368 net69
*369 net7
*370 net70
*371 net71
*372 net72
*373 net73
*374 net74
*375 net75
*376 net76
*377 net77
*378 net78
*379 net79
*380 net8
*381 net80
*382 net81
*383 net82
*384 net83
*385 net84
*386 net85
*387 net86
*388 net9
*389 pwm_audio\.fsm_adsr_counter\[0\]
*390 pwm_audio\.fsm_adsr_counter\[10\]
*391 pwm_audio\.fsm_adsr_counter\[11\]
*392 pwm_audio\.fsm_adsr_counter\[12\]
*393 pwm_audio\.fsm_adsr_counter\[13\]
*394 pwm_audio\.fsm_adsr_counter\[14\]
*395 pwm_audio\.fsm_adsr_counter\[15\]
*396 pwm_audio\.fsm_adsr_counter\[16\]
*397 pwm_audio\.fsm_adsr_counter\[17\]
*398 pwm_audio\.fsm_adsr_counter\[18\]
*399 pwm_audio\.fsm_adsr_counter\[19\]
*400 pwm_audio\.fsm_adsr_counter\[1\]
*401 pwm_audio\.fsm_adsr_counter\[20\]
*402 pwm_audio\.fsm_adsr_counter\[21\]
*403 pwm_audio\.fsm_adsr_counter\[22\]
*404 pwm_audio\.fsm_adsr_counter\[23\]
*405 pwm_audio\.fsm_adsr_counter\[2\]
*406 pwm_audio\.fsm_adsr_counter\[3\]
*407 pwm_audio\.fsm_adsr_counter\[4\]
*408 pwm_audio\.fsm_adsr_counter\[5\]
*409 pwm_audio\.fsm_adsr_counter\[6\]
*410 pwm_audio\.fsm_adsr_counter\[7\]
*411 pwm_audio\.fsm_adsr_counter\[8\]
*412 pwm_audio\.fsm_adsr_counter\[9\]
*413 pwm_audio\.fsm_adsr_level_adsr\[0\]
*414 pwm_audio\.fsm_adsr_level_adsr\[1\]
*415 pwm_audio\.fsm_adsr_level_adsr\[2\]
*416 pwm_audio\.fsm_adsr_level_adsr\[3\]
*417 pwm_audio\.fsm_adsr_level_adsr\[4\]
*418 pwm_audio\.fsm_adsr_level_adsr\[5\]
*419 pwm_audio\.fsm_adsr_level_adsr\[6\]
*420 pwm_audio\.fsm_adsr_level_adsr\[7\]
*421 pwm_audio\.fsm_adsr_level_adsr\[8\]
*422 pwm_audio\.fsm_adsr_level_adsr\[9\]
*423 pwm_audio\.fsm_adsr_stateNext\[0\]
*424 pwm_audio\.fsm_adsr_stateNext\[1\]
*425 pwm_audio\.fsm_adsr_stateNext\[2\]
*426 pwm_audio\.fsm_adsr_stateReg\[0\]
*427 pwm_audio\.fsm_adsr_stateReg\[1\]
*428 pwm_audio\.fsm_adsr_stateReg\[2\]
*429 pwm_audio\.io_pwm_high
*430 pwm_audio\.io_pwm_low
*431 pwm_audio\.pwm_ctrl\.freq_counter_valueNext\[0\]
*432 pwm_audio\.pwm_ctrl\.freq_counter_valueNext\[1\]
*433 pwm_audio\.pwm_ctrl\.freq_counter_valueNext\[2\]
*434 pwm_audio\.pwm_ctrl\.freq_counter_valueNext\[3\]
*435 pwm_audio\.pwm_ctrl\.freq_counter_valueNext\[4\]
*436 pwm_audio\.pwm_ctrl\.freq_counter_valueNext\[5\]
*437 pwm_audio\.pwm_ctrl\.freq_counter_valueNext\[6\]
*438 pwm_audio\.pwm_ctrl\.freq_counter_valueNext\[7\]
*439 pwm_audio\.pwm_ctrl\.freq_counter_value\[0\]
*440 pwm_audio\.pwm_ctrl\.freq_counter_value\[1\]
*441 pwm_audio\.pwm_ctrl\.freq_counter_value\[2\]
*442 pwm_audio\.pwm_ctrl\.freq_counter_value\[3\]
*443 pwm_audio\.pwm_ctrl\.freq_counter_value\[4\]
*444 pwm_audio\.pwm_ctrl\.freq_counter_value\[5\]
*445 pwm_audio\.pwm_ctrl\.freq_counter_value\[6\]
*446 pwm_audio\.pwm_ctrl\.freq_counter_value\[7\]
*447 pwm_audio\.pwm_ctrl\.pwmdriver_high\.counter_valueNext\[0\]
*448 pwm_audio\.pwm_ctrl\.pwmdriver_high\.counter_valueNext\[1\]
*449 pwm_audio\.pwm_ctrl\.pwmdriver_high\.counter_valueNext\[2\]
*450 pwm_audio\.pwm_ctrl\.pwmdriver_high\.counter_valueNext\[3\]
*451 pwm_audio\.pwm_ctrl\.pwmdriver_high\.counter_valueNext\[4\]
*452 pwm_audio\.pwm_ctrl\.pwmdriver_high\.counter_value\[0\]
*453 pwm_audio\.pwm_ctrl\.pwmdriver_high\.counter_value\[1\]
*454 pwm_audio\.pwm_ctrl\.pwmdriver_high\.counter_value\[2\]
*455 pwm_audio\.pwm_ctrl\.pwmdriver_high\.counter_value\[3\]
*456 pwm_audio\.pwm_ctrl\.pwmdriver_high\.counter_value\[4\]
*457 pwm_audio\.pwm_ctrl\.pwmdriver_low\.counter_valueNext\[0\]
*458 pwm_audio\.pwm_ctrl\.pwmdriver_low\.counter_valueNext\[1\]
*459 pwm_audio\.pwm_ctrl\.pwmdriver_low\.counter_valueNext\[2\]
*460 pwm_audio\.pwm_ctrl\.pwmdriver_low\.counter_valueNext\[3\]
*461 pwm_audio\.pwm_ctrl\.pwmdriver_low\.counter_valueNext\[4\]
*462 pwm_audio\.pwm_ctrl\.pwmdriver_low\.counter_value\[0\]
*463 pwm_audio\.pwm_ctrl\.pwmdriver_low\.counter_value\[1\]
*464 pwm_audio\.pwm_ctrl\.pwmdriver_low\.counter_value\[2\]
*465 pwm_audio\.pwm_ctrl\.pwmdriver_low\.counter_value\[3\]
*466 pwm_audio\.pwm_ctrl\.pwmdriver_low\.counter_value\[4\]
*467 pwm_audio\.pwm_ctrl\.wave_counter_valueNext\[0\]
*468 pwm_audio\.pwm_ctrl\.wave_counter_valueNext\[1\]
*469 pwm_audio\.pwm_ctrl\.wave_counter_valueNext\[2\]
*470 pwm_audio\.pwm_ctrl\.wave_counter_valueNext\[3\]
*471 pwm_audio\.pwm_ctrl\.wave_counter_valueNext\[4\]
*472 pwm_audio\.pwm_ctrl\.wave_counter_valueNext\[5\]
*473 pwm_audio\.pwm_ctrl\.wave_counter_valueNext\[6\]
*474 pwm_audio\.pwm_ctrl\.wave_counter_valueNext\[7\]
*475 pwm_audio\.pwm_ctrl\.wave_counter_valueNext\[8\]
*476 pwm_audio\.pwm_ctrl\.wave_counter_valueNext\[9\]
*477 pwm_audio\.pwm_ctrl\.wave_counter_value\[0\]
*478 pwm_audio\.pwm_ctrl\.wave_counter_value\[1\]
*479 pwm_audio\.pwm_ctrl\.wave_counter_value\[2\]
*480 pwm_audio\.pwm_ctrl\.wave_counter_value\[3\]
*481 pwm_audio\.pwm_ctrl\.wave_counter_value\[4\]
*482 pwm_audio\.pwm_ctrl\.wave_counter_value\[5\]
*483 pwm_audio\.pwm_ctrl\.wave_counter_value\[6\]
*484 pwm_audio\.pwm_ctrl\.wave_counter_value\[7\]
*485 pwm_audio\.pwm_ctrl\.wave_counter_value\[8\]
*486 pwm_audio\.pwm_ctrl\.wave_counter_value\[9\]
*487 FILLER_0_0_109
*488 FILLER_0_0_113
*489 FILLER_0_0_125
*490 FILLER_0_0_137
*491 FILLER_0_0_141
*492 FILLER_0_0_15
*493 FILLER_0_0_153
*494 FILLER_0_0_165
*495 FILLER_0_0_169
*496 FILLER_0_0_181
*497 FILLER_0_0_193
*498 FILLER_0_0_197
*499 FILLER_0_0_209
*500 FILLER_0_0_221
*501 FILLER_0_0_225
*502 FILLER_0_0_237
*503 FILLER_0_0_249
*504 FILLER_0_0_253
*505 FILLER_0_0_265
*506 FILLER_0_0_27
*507 FILLER_0_0_277
*508 FILLER_0_0_281
*509 FILLER_0_0_29
*510 FILLER_0_0_293
*511 FILLER_0_0_3
*512 FILLER_0_0_305
*513 FILLER_0_0_309
*514 FILLER_0_0_321
*515 FILLER_0_0_333
*516 FILLER_0_0_337
*517 FILLER_0_0_349
*518 FILLER_0_0_41
*519 FILLER_0_0_53
*520 FILLER_0_0_57
*521 FILLER_0_0_69
*522 FILLER_0_0_81
*523 FILLER_0_0_85
*524 FILLER_0_0_97
*525 FILLER_0_10_109
*526 FILLER_0_10_121
*527 FILLER_0_10_133
*528 FILLER_0_10_139
*529 FILLER_0_10_141
*530 FILLER_0_10_15
*531 FILLER_0_10_153
*532 FILLER_0_10_165
*533 FILLER_0_10_177
*534 FILLER_0_10_189
*535 FILLER_0_10_195
*536 FILLER_0_10_197
*537 FILLER_0_10_209
*538 FILLER_0_10_221
*539 FILLER_0_10_233
*540 FILLER_0_10_245
*541 FILLER_0_10_251
*542 FILLER_0_10_253
*543 FILLER_0_10_265
*544 FILLER_0_10_27
*545 FILLER_0_10_277
*546 FILLER_0_10_289
*547 FILLER_0_10_29
*548 FILLER_0_10_3
*549 FILLER_0_10_301
*550 FILLER_0_10_307
*551 FILLER_0_10_309
*552 FILLER_0_10_321
*553 FILLER_0_10_333
*554 FILLER_0_10_345
*555 FILLER_0_10_41
*556 FILLER_0_10_53
*557 FILLER_0_10_65
*558 FILLER_0_10_77
*559 FILLER_0_10_83
*560 FILLER_0_10_85
*561 FILLER_0_10_97
*562 FILLER_0_11_105
*563 FILLER_0_11_111
*564 FILLER_0_11_113
*565 FILLER_0_11_125
*566 FILLER_0_11_137
*567 FILLER_0_11_149
*568 FILLER_0_11_15
*569 FILLER_0_11_161
*570 FILLER_0_11_167
*571 FILLER_0_11_169
*572 FILLER_0_11_181
*573 FILLER_0_11_193
*574 FILLER_0_11_205
*575 FILLER_0_11_217
*576 FILLER_0_11_223
*577 FILLER_0_11_225
*578 FILLER_0_11_237
*579 FILLER_0_11_249
*580 FILLER_0_11_261
*581 FILLER_0_11_27
*582 FILLER_0_11_273
*583 FILLER_0_11_279
*584 FILLER_0_11_281
*585 FILLER_0_11_293
*586 FILLER_0_11_3
*587 FILLER_0_11_305
*588 FILLER_0_11_317
*589 FILLER_0_11_329
*590 FILLER_0_11_335
*591 FILLER_0_11_337
*592 FILLER_0_11_349
*593 FILLER_0_11_39
*594 FILLER_0_11_51
*595 FILLER_0_11_55
*596 FILLER_0_11_57
*597 FILLER_0_11_69
*598 FILLER_0_11_81
*599 FILLER_0_11_93
*600 FILLER_0_12_109
*601 FILLER_0_12_121
*602 FILLER_0_12_133
*603 FILLER_0_12_139
*604 FILLER_0_12_141
*605 FILLER_0_12_15
*606 FILLER_0_12_153
*607 FILLER_0_12_165
*608 FILLER_0_12_177
*609 FILLER_0_12_189
*610 FILLER_0_12_195
*611 FILLER_0_12_197
*612 FILLER_0_12_209
*613 FILLER_0_12_221
*614 FILLER_0_12_233
*615 FILLER_0_12_245
*616 FILLER_0_12_251
*617 FILLER_0_12_253
*618 FILLER_0_12_265
*619 FILLER_0_12_27
*620 FILLER_0_12_277
*621 FILLER_0_12_289
*622 FILLER_0_12_29
*623 FILLER_0_12_3
*624 FILLER_0_12_301
*625 FILLER_0_12_307
*626 FILLER_0_12_309
*627 FILLER_0_12_321
*628 FILLER_0_12_333
*629 FILLER_0_12_345
*630 FILLER_0_12_41
*631 FILLER_0_12_53
*632 FILLER_0_12_65
*633 FILLER_0_12_77
*634 FILLER_0_12_83
*635 FILLER_0_12_85
*636 FILLER_0_12_97
*637 FILLER_0_13_105
*638 FILLER_0_13_111
*639 FILLER_0_13_113
*640 FILLER_0_13_125
*641 FILLER_0_13_137
*642 FILLER_0_13_149
*643 FILLER_0_13_15
*644 FILLER_0_13_161
*645 FILLER_0_13_167
*646 FILLER_0_13_169
*647 FILLER_0_13_181
*648 FILLER_0_13_193
*649 FILLER_0_13_205
*650 FILLER_0_13_217
*651 FILLER_0_13_223
*652 FILLER_0_13_225
*653 FILLER_0_13_237
*654 FILLER_0_13_249
*655 FILLER_0_13_261
*656 FILLER_0_13_27
*657 FILLER_0_13_273
*658 FILLER_0_13_279
*659 FILLER_0_13_281
*660 FILLER_0_13_293
*661 FILLER_0_13_3
*662 FILLER_0_13_305
*663 FILLER_0_13_317
*664 FILLER_0_13_329
*665 FILLER_0_13_335
*666 FILLER_0_13_337
*667 FILLER_0_13_349
*668 FILLER_0_13_39
*669 FILLER_0_13_51
*670 FILLER_0_13_55
*671 FILLER_0_13_57
*672 FILLER_0_13_69
*673 FILLER_0_13_81
*674 FILLER_0_13_93
*675 FILLER_0_14_101
*676 FILLER_0_14_122
*677 FILLER_0_14_134
*678 FILLER_0_14_141
*679 FILLER_0_14_15
*680 FILLER_0_14_153
*681 FILLER_0_14_165
*682 FILLER_0_14_177
*683 FILLER_0_14_189
*684 FILLER_0_14_195
*685 FILLER_0_14_218
*686 FILLER_0_14_230
*687 FILLER_0_14_242
*688 FILLER_0_14_250
*689 FILLER_0_14_253
*690 FILLER_0_14_267
*691 FILLER_0_14_27
*692 FILLER_0_14_279
*693 FILLER_0_14_29
*694 FILLER_0_14_3
*695 FILLER_0_14_302
*696 FILLER_0_14_309
*697 FILLER_0_14_321
*698 FILLER_0_14_333
*699 FILLER_0_14_345
*700 FILLER_0_14_41
*701 FILLER_0_14_53
*702 FILLER_0_14_65
*703 FILLER_0_14_77
*704 FILLER_0_14_83
*705 FILLER_0_14_85
*706 FILLER_0_14_97
*707 FILLER_0_15_101
*708 FILLER_0_15_113
*709 FILLER_0_15_122
*710 FILLER_0_15_134
*711 FILLER_0_15_146
*712 FILLER_0_15_15
*713 FILLER_0_15_158
*714 FILLER_0_15_166
*715 FILLER_0_15_169
*716 FILLER_0_15_181
*717 FILLER_0_15_205
*718 FILLER_0_15_217
*719 FILLER_0_15_223
*720 FILLER_0_15_225
*721 FILLER_0_15_229
*722 FILLER_0_15_27
*723 FILLER_0_15_3
*724 FILLER_0_15_309
*725 FILLER_0_15_337
*726 FILLER_0_15_349
*727 FILLER_0_15_39
*728 FILLER_0_15_51
*729 FILLER_0_15_55
*730 FILLER_0_15_57
*731 FILLER_0_15_69
*732 FILLER_0_15_81
*733 FILLER_0_15_93
*734 FILLER_0_16_101
*735 FILLER_0_16_122
*736 FILLER_0_16_134
*737 FILLER_0_16_141
*738 FILLER_0_16_15
*739 FILLER_0_16_153
*740 FILLER_0_16_169
*741 FILLER_0_16_181
*742 FILLER_0_16_211
*743 FILLER_0_16_215
*744 FILLER_0_16_27
*745 FILLER_0_16_280
*746 FILLER_0_16_29
*747 FILLER_0_16_3
*748 FILLER_0_16_309
*749 FILLER_0_16_349
*750 FILLER_0_16_41
*751 FILLER_0_16_53
*752 FILLER_0_16_65
*753 FILLER_0_16_77
*754 FILLER_0_16_83
*755 FILLER_0_16_85
*756 FILLER_0_16_97
*757 FILLER_0_17_113
*758 FILLER_0_17_136
*759 FILLER_0_17_15
*760 FILLER_0_17_165
*761 FILLER_0_17_184
*762 FILLER_0_17_192
*763 FILLER_0_17_207
*764 FILLER_0_17_219
*765 FILLER_0_17_223
*766 FILLER_0_17_225
*767 FILLER_0_17_27
*768 FILLER_0_17_276
*769 FILLER_0_17_3
*770 FILLER_0_17_304
*771 FILLER_0_17_310
*772 FILLER_0_17_316
*773 FILLER_0_17_335
*774 FILLER_0_17_348
*775 FILLER_0_17_39
*776 FILLER_0_17_51
*777 FILLER_0_17_55
*778 FILLER_0_17_57
*779 FILLER_0_17_69
*780 FILLER_0_17_81
*781 FILLER_0_17_93
*782 FILLER_0_18_141
*783 FILLER_0_18_15
*784 FILLER_0_18_186
*785 FILLER_0_18_194
*786 FILLER_0_18_197
*787 FILLER_0_18_211
*788 FILLER_0_18_223
*789 FILLER_0_18_235
*790 FILLER_0_18_247
*791 FILLER_0_18_251
*792 FILLER_0_18_27
*793 FILLER_0_18_273
*794 FILLER_0_18_29
*795 FILLER_0_18_3
*796 FILLER_0_18_304
*797 FILLER_0_18_315
*798 FILLER_0_18_350
*799 FILLER_0_18_41
*800 FILLER_0_18_53
*801 FILLER_0_18_65
*802 FILLER_0_18_77
*803 FILLER_0_18_83
*804 FILLER_0_18_85
*805 FILLER_0_18_97
*806 FILLER_0_19_121
*807 FILLER_0_19_133
*808 FILLER_0_19_141
*809 FILLER_0_19_15
*810 FILLER_0_19_184
*811 FILLER_0_19_192
*812 FILLER_0_19_222
*813 FILLER_0_19_225
*814 FILLER_0_19_237
*815 FILLER_0_19_249
*816 FILLER_0_19_259
*817 FILLER_0_19_267
*818 FILLER_0_19_27
*819 FILLER_0_19_274
*820 FILLER_0_19_281
*821 FILLER_0_19_295
*822 FILLER_0_19_3
*823 FILLER_0_19_307
*824 FILLER_0_19_334
*825 FILLER_0_19_337
*826 FILLER_0_19_341
*827 FILLER_0_19_347
*828 FILLER_0_19_39
*829 FILLER_0_19_51
*830 FILLER_0_19_55
*831 FILLER_0_19_57
*832 FILLER_0_19_69
*833 FILLER_0_19_81
*834 FILLER_0_1_105
*835 FILLER_0_1_111
*836 FILLER_0_1_113
*837 FILLER_0_1_125
*838 FILLER_0_1_137
*839 FILLER_0_1_149
*840 FILLER_0_1_15
*841 FILLER_0_1_161
*842 FILLER_0_1_167
*843 FILLER_0_1_169
*844 FILLER_0_1_181
*845 FILLER_0_1_193
*846 FILLER_0_1_205
*847 FILLER_0_1_217
*848 FILLER_0_1_223
*849 FILLER_0_1_225
*850 FILLER_0_1_237
*851 FILLER_0_1_249
*852 FILLER_0_1_261
*853 FILLER_0_1_27
*854 FILLER_0_1_273
*855 FILLER_0_1_279
*856 FILLER_0_1_281
*857 FILLER_0_1_293
*858 FILLER_0_1_3
*859 FILLER_0_1_305
*860 FILLER_0_1_317
*861 FILLER_0_1_329
*862 FILLER_0_1_335
*863 FILLER_0_1_337
*864 FILLER_0_1_349
*865 FILLER_0_1_39
*866 FILLER_0_1_51
*867 FILLER_0_1_55
*868 FILLER_0_1_57
*869 FILLER_0_1_69
*870 FILLER_0_1_81
*871 FILLER_0_1_93
*872 FILLER_0_20_102
*873 FILLER_0_20_129
*874 FILLER_0_20_137
*875 FILLER_0_20_141
*876 FILLER_0_20_15
*877 FILLER_0_20_151
*878 FILLER_0_20_155
*879 FILLER_0_20_193
*880 FILLER_0_20_197
*881 FILLER_0_20_241
*882 FILLER_0_20_245
*883 FILLER_0_20_253
*884 FILLER_0_20_269
*885 FILLER_0_20_27
*886 FILLER_0_20_273
*887 FILLER_0_20_286
*888 FILLER_0_20_29
*889 FILLER_0_20_298
*890 FILLER_0_20_3
*891 FILLER_0_20_306
*892 FILLER_0_20_309
*893 FILLER_0_20_321
*894 FILLER_0_20_344
*895 FILLER_0_20_350
*896 FILLER_0_20_41
*897 FILLER_0_20_53
*898 FILLER_0_20_65
*899 FILLER_0_20_77
*900 FILLER_0_20_83
*901 FILLER_0_20_85
*902 FILLER_0_20_91
*903 FILLER_0_21_111
*904 FILLER_0_21_133
*905 FILLER_0_21_145
*906 FILLER_0_21_15
*907 FILLER_0_21_157
*908 FILLER_0_21_166
*909 FILLER_0_21_169
*910 FILLER_0_21_181
*911 FILLER_0_21_190
*912 FILLER_0_21_202
*913 FILLER_0_21_217
*914 FILLER_0_21_223
*915 FILLER_0_21_225
*916 FILLER_0_21_255
*917 FILLER_0_21_27
*918 FILLER_0_21_275
*919 FILLER_0_21_279
*920 FILLER_0_21_281
*921 FILLER_0_21_293
*922 FILLER_0_21_3
*923 FILLER_0_21_315
*924 FILLER_0_21_337
*925 FILLER_0_21_341
*926 FILLER_0_21_347
*927 FILLER_0_21_39
*928 FILLER_0_21_51
*929 FILLER_0_21_55
*930 FILLER_0_21_57
*931 FILLER_0_21_69
*932 FILLER_0_21_81
*933 FILLER_0_22_137
*934 FILLER_0_22_149
*935 FILLER_0_22_15
*936 FILLER_0_22_157
*937 FILLER_0_22_192
*938 FILLER_0_22_197
*939 FILLER_0_22_222
*940 FILLER_0_22_230
*941 FILLER_0_22_234
*942 FILLER_0_22_246
*943 FILLER_0_22_261
*944 FILLER_0_22_27
*945 FILLER_0_22_276
*946 FILLER_0_22_288
*947 FILLER_0_22_29
*948 FILLER_0_22_3
*949 FILLER_0_22_304
*950 FILLER_0_22_309
*951 FILLER_0_22_321
*952 FILLER_0_22_41
*953 FILLER_0_22_53
*954 FILLER_0_22_65
*955 FILLER_0_22_77
*956 FILLER_0_22_83
*957 FILLER_0_22_85
*958 FILLER_0_22_93
*959 FILLER_0_23_101
*960 FILLER_0_23_137
*961 FILLER_0_23_15
*962 FILLER_0_23_166
*963 FILLER_0_23_169
*964 FILLER_0_23_186
*965 FILLER_0_23_206
*966 FILLER_0_23_218
*967 FILLER_0_23_225
*968 FILLER_0_23_235
*969 FILLER_0_23_247
*970 FILLER_0_23_253
*971 FILLER_0_23_260
*972 FILLER_0_23_269
*973 FILLER_0_23_27
*974 FILLER_0_23_296
*975 FILLER_0_23_3
*976 FILLER_0_23_311
*977 FILLER_0_23_315
*978 FILLER_0_23_335
*979 FILLER_0_23_337
*980 FILLER_0_23_347
*981 FILLER_0_23_39
*982 FILLER_0_23_51
*983 FILLER_0_23_55
*984 FILLER_0_23_57
*985 FILLER_0_23_69
*986 FILLER_0_23_81
*987 FILLER_0_23_93
*988 FILLER_0_24_100
*989 FILLER_0_24_113
*990 FILLER_0_24_137
*991 FILLER_0_24_141
*992 FILLER_0_24_15
*993 FILLER_0_24_153
*994 FILLER_0_24_162
*995 FILLER_0_24_170
*996 FILLER_0_24_174
*997 FILLER_0_24_223
*998 FILLER_0_24_229
*999 FILLER_0_24_251
*1000 FILLER_0_24_253
*1001 FILLER_0_24_261
*1002 FILLER_0_24_267
*1003 FILLER_0_24_27
*1004 FILLER_0_24_275
*1005 FILLER_0_24_279
*1006 FILLER_0_24_29
*1007 FILLER_0_24_3
*1008 FILLER_0_24_301
*1009 FILLER_0_24_307
*1010 FILLER_0_24_309
*1011 FILLER_0_24_317
*1012 FILLER_0_24_41
*1013 FILLER_0_24_53
*1014 FILLER_0_24_65
*1015 FILLER_0_24_77
*1016 FILLER_0_24_83
*1017 FILLER_0_24_85
*1018 FILLER_0_25_110
*1019 FILLER_0_25_128
*1020 FILLER_0_25_140
*1021 FILLER_0_25_15
*1022 FILLER_0_25_152
*1023 FILLER_0_25_164
*1024 FILLER_0_25_169
*1025 FILLER_0_25_181
*1026 FILLER_0_25_193
*1027 FILLER_0_25_210
*1028 FILLER_0_25_221
*1029 FILLER_0_25_225
*1030 FILLER_0_25_231
*1031 FILLER_0_25_256
*1032 FILLER_0_25_267
*1033 FILLER_0_25_27
*1034 FILLER_0_25_271
*1035 FILLER_0_25_275
*1036 FILLER_0_25_279
*1037 FILLER_0_25_281
*1038 FILLER_0_25_293
*1039 FILLER_0_25_3
*1040 FILLER_0_25_305
*1041 FILLER_0_25_317
*1042 FILLER_0_25_329
*1043 FILLER_0_25_335
*1044 FILLER_0_25_337
*1045 FILLER_0_25_349
*1046 FILLER_0_25_39
*1047 FILLER_0_25_51
*1048 FILLER_0_25_55
*1049 FILLER_0_25_57
*1050 FILLER_0_25_69
*1051 FILLER_0_25_81
*1052 FILLER_0_25_89
*1053 FILLER_0_26_124
*1054 FILLER_0_26_136
*1055 FILLER_0_26_15
*1056 FILLER_0_26_173
*1057 FILLER_0_26_185
*1058 FILLER_0_26_193
*1059 FILLER_0_26_204
*1060 FILLER_0_26_212
*1061 FILLER_0_26_242
*1062 FILLER_0_26_250
*1063 FILLER_0_26_258
*1064 FILLER_0_26_266
*1065 FILLER_0_26_27
*1066 FILLER_0_26_29
*1067 FILLER_0_26_3
*1068 FILLER_0_26_304
*1069 FILLER_0_26_309
*1070 FILLER_0_26_313
*1071 FILLER_0_26_335
*1072 FILLER_0_26_347
*1073 FILLER_0_26_41
*1074 FILLER_0_26_53
*1075 FILLER_0_26_65
*1076 FILLER_0_26_77
*1077 FILLER_0_26_83
*1078 FILLER_0_27_121
*1079 FILLER_0_27_129
*1080 FILLER_0_27_15
*1081 FILLER_0_27_153
*1082 FILLER_0_27_157
*1083 FILLER_0_27_166
*1084 FILLER_0_27_180
*1085 FILLER_0_27_186
*1086 FILLER_0_27_219
*1087 FILLER_0_27_223
*1088 FILLER_0_27_225
*1089 FILLER_0_27_237
*1090 FILLER_0_27_245
*1091 FILLER_0_27_254
*1092 FILLER_0_27_27
*1093 FILLER_0_27_3
*1094 FILLER_0_27_311
*1095 FILLER_0_27_335
*1096 FILLER_0_27_337
*1097 FILLER_0_27_349
*1098 FILLER_0_27_39
*1099 FILLER_0_27_51
*1100 FILLER_0_27_55
*1101 FILLER_0_27_57
*1102 FILLER_0_27_69
*1103 FILLER_0_27_81
*1104 FILLER_0_28_127
*1105 FILLER_0_28_139
*1106 FILLER_0_28_141
*1107 FILLER_0_28_15
*1108 FILLER_0_28_161
*1109 FILLER_0_28_188
*1110 FILLER_0_28_200
*1111 FILLER_0_28_211
*1112 FILLER_0_28_219
*1113 FILLER_0_28_226
*1114 FILLER_0_28_239
*1115 FILLER_0_28_251
*1116 FILLER_0_28_27
*1117 FILLER_0_28_29
*1118 FILLER_0_28_3
*1119 FILLER_0_28_307
*1120 FILLER_0_28_313
*1121 FILLER_0_28_325
*1122 FILLER_0_28_337
*1123 FILLER_0_28_349
*1124 FILLER_0_28_41
*1125 FILLER_0_28_53
*1126 FILLER_0_28_65
*1127 FILLER_0_28_77
*1128 FILLER_0_28_83
*1129 FILLER_0_28_85
*1130 FILLER_0_28_97
*1131 FILLER_0_29_113
*1132 FILLER_0_29_125
*1133 FILLER_0_29_137
*1134 FILLER_0_29_15
*1135 FILLER_0_29_165
*1136 FILLER_0_29_174
*1137 FILLER_0_29_186
*1138 FILLER_0_29_198
*1139 FILLER_0_29_210
*1140 FILLER_0_29_219
*1141 FILLER_0_29_223
*1142 FILLER_0_29_239
*1143 FILLER_0_29_247
*1144 FILLER_0_29_266
*1145 FILLER_0_29_27
*1146 FILLER_0_29_278
*1147 FILLER_0_29_281
*1148 FILLER_0_29_287
*1149 FILLER_0_29_294
*1150 FILLER_0_29_3
*1151 FILLER_0_29_317
*1152 FILLER_0_29_329
*1153 FILLER_0_29_335
*1154 FILLER_0_29_337
*1155 FILLER_0_29_349
*1156 FILLER_0_29_39
*1157 FILLER_0_29_51
*1158 FILLER_0_29_55
*1159 FILLER_0_29_57
*1160 FILLER_0_29_69
*1161 FILLER_0_29_81
*1162 FILLER_0_29_89
*1163 FILLER_0_2_109
*1164 FILLER_0_2_121
*1165 FILLER_0_2_133
*1166 FILLER_0_2_139
*1167 FILLER_0_2_141
*1168 FILLER_0_2_15
*1169 FILLER_0_2_153
*1170 FILLER_0_2_165
*1171 FILLER_0_2_177
*1172 FILLER_0_2_189
*1173 FILLER_0_2_195
*1174 FILLER_0_2_197
*1175 FILLER_0_2_209
*1176 FILLER_0_2_221
*1177 FILLER_0_2_233
*1178 FILLER_0_2_245
*1179 FILLER_0_2_251
*1180 FILLER_0_2_253
*1181 FILLER_0_2_265
*1182 FILLER_0_2_27
*1183 FILLER_0_2_277
*1184 FILLER_0_2_289
*1185 FILLER_0_2_29
*1186 FILLER_0_2_3
*1187 FILLER_0_2_301
*1188 FILLER_0_2_307
*1189 FILLER_0_2_309
*1190 FILLER_0_2_321
*1191 FILLER_0_2_333
*1192 FILLER_0_2_345
*1193 FILLER_0_2_41
*1194 FILLER_0_2_53
*1195 FILLER_0_2_65
*1196 FILLER_0_2_77
*1197 FILLER_0_2_83
*1198 FILLER_0_2_85
*1199 FILLER_0_2_97
*1200 FILLER_0_30_125
*1201 FILLER_0_30_137
*1202 FILLER_0_30_141
*1203 FILLER_0_30_15
*1204 FILLER_0_30_174
*1205 FILLER_0_30_180
*1206 FILLER_0_30_195
*1207 FILLER_0_30_197
*1208 FILLER_0_30_209
*1209 FILLER_0_30_221
*1210 FILLER_0_30_242
*1211 FILLER_0_30_250
*1212 FILLER_0_30_268
*1213 FILLER_0_30_27
*1214 FILLER_0_30_281
*1215 FILLER_0_30_29
*1216 FILLER_0_30_293
*1217 FILLER_0_30_297
*1218 FILLER_0_30_3
*1219 FILLER_0_30_307
*1220 FILLER_0_30_317
*1221 FILLER_0_30_329
*1222 FILLER_0_30_341
*1223 FILLER_0_30_349
*1224 FILLER_0_30_41
*1225 FILLER_0_30_53
*1226 FILLER_0_30_65
*1227 FILLER_0_30_77
*1228 FILLER_0_30_83
*1229 FILLER_0_30_85
*1230 FILLER_0_30_89
*1231 FILLER_0_31_108
*1232 FILLER_0_31_126
*1233 FILLER_0_31_130
*1234 FILLER_0_31_15
*1235 FILLER_0_31_159
*1236 FILLER_0_31_167
*1237 FILLER_0_31_176
*1238 FILLER_0_31_208
*1239 FILLER_0_31_220
*1240 FILLER_0_31_225
*1241 FILLER_0_31_241
*1242 FILLER_0_31_245
*1243 FILLER_0_31_252
*1244 FILLER_0_31_260
*1245 FILLER_0_31_268
*1246 FILLER_0_31_27
*1247 FILLER_0_31_295
*1248 FILLER_0_31_3
*1249 FILLER_0_31_320
*1250 FILLER_0_31_332
*1251 FILLER_0_31_337
*1252 FILLER_0_31_349
*1253 FILLER_0_31_39
*1254 FILLER_0_31_51
*1255 FILLER_0_31_55
*1256 FILLER_0_31_57
*1257 FILLER_0_31_69
*1258 FILLER_0_31_81
*1259 FILLER_0_32_113
*1260 FILLER_0_32_125
*1261 FILLER_0_32_141
*1262 FILLER_0_32_15
*1263 FILLER_0_32_157
*1264 FILLER_0_32_167
*1265 FILLER_0_32_179
*1266 FILLER_0_32_195
*1267 FILLER_0_32_204
*1268 FILLER_0_32_213
*1269 FILLER_0_32_225
*1270 FILLER_0_32_235
*1271 FILLER_0_32_246
*1272 FILLER_0_32_253
*1273 FILLER_0_32_268
*1274 FILLER_0_32_27
*1275 FILLER_0_32_29
*1276 FILLER_0_32_3
*1277 FILLER_0_32_306
*1278 FILLER_0_32_309
*1279 FILLER_0_32_316
*1280 FILLER_0_32_328
*1281 FILLER_0_32_340
*1282 FILLER_0_32_348
*1283 FILLER_0_32_41
*1284 FILLER_0_32_53
*1285 FILLER_0_32_65
*1286 FILLER_0_32_77
*1287 FILLER_0_32_83
*1288 FILLER_0_32_85
*1289 FILLER_0_33_108
*1290 FILLER_0_33_119
*1291 FILLER_0_33_127
*1292 FILLER_0_33_15
*1293 FILLER_0_33_163
*1294 FILLER_0_33_167
*1295 FILLER_0_33_169
*1296 FILLER_0_33_181
*1297 FILLER_0_33_189
*1298 FILLER_0_33_198
*1299 FILLER_0_33_206
*1300 FILLER_0_33_216
*1301 FILLER_0_33_233
*1302 FILLER_0_33_262
*1303 FILLER_0_33_27
*1304 FILLER_0_33_271
*1305 FILLER_0_33_279
*1306 FILLER_0_33_288
*1307 FILLER_0_33_3
*1308 FILLER_0_33_300
*1309 FILLER_0_33_312
*1310 FILLER_0_33_324
*1311 FILLER_0_33_337
*1312 FILLER_0_33_349
*1313 FILLER_0_33_39
*1314 FILLER_0_33_51
*1315 FILLER_0_33_55
*1316 FILLER_0_33_57
*1317 FILLER_0_33_69
*1318 FILLER_0_33_81
*1319 FILLER_0_33_87
*1320 FILLER_0_34_110
*1321 FILLER_0_34_122
*1322 FILLER_0_34_130
*1323 FILLER_0_34_141
*1324 FILLER_0_34_147
*1325 FILLER_0_34_15
*1326 FILLER_0_34_151
*1327 FILLER_0_34_163
*1328 FILLER_0_34_175
*1329 FILLER_0_34_185
*1330 FILLER_0_34_193
*1331 FILLER_0_34_197
*1332 FILLER_0_34_201
*1333 FILLER_0_34_248
*1334 FILLER_0_34_262
*1335 FILLER_0_34_27
*1336 FILLER_0_34_278
*1337 FILLER_0_34_29
*1338 FILLER_0_34_290
*1339 FILLER_0_34_3
*1340 FILLER_0_34_302
*1341 FILLER_0_34_309
*1342 FILLER_0_34_321
*1343 FILLER_0_34_333
*1344 FILLER_0_34_345
*1345 FILLER_0_34_41
*1346 FILLER_0_34_53
*1347 FILLER_0_34_65
*1348 FILLER_0_34_77
*1349 FILLER_0_34_83
*1350 FILLER_0_34_85
*1351 FILLER_0_34_93
*1352 FILLER_0_34_97
*1353 FILLER_0_35_106
*1354 FILLER_0_35_113
*1355 FILLER_0_35_125
*1356 FILLER_0_35_15
*1357 FILLER_0_35_181
*1358 FILLER_0_35_191
*1359 FILLER_0_35_203
*1360 FILLER_0_35_215
*1361 FILLER_0_35_234
*1362 FILLER_0_35_246
*1363 FILLER_0_35_258
*1364 FILLER_0_35_27
*1365 FILLER_0_35_289
*1366 FILLER_0_35_3
*1367 FILLER_0_35_301
*1368 FILLER_0_35_313
*1369 FILLER_0_35_325
*1370 FILLER_0_35_333
*1371 FILLER_0_35_337
*1372 FILLER_0_35_349
*1373 FILLER_0_35_39
*1374 FILLER_0_35_51
*1375 FILLER_0_35_55
*1376 FILLER_0_35_57
*1377 FILLER_0_35_69
*1378 FILLER_0_35_81
*1379 FILLER_0_35_93
*1380 FILLER_0_35_97
*1381 FILLER_0_36_121
*1382 FILLER_0_36_125
*1383 FILLER_0_36_134
*1384 FILLER_0_36_15
*1385 FILLER_0_36_161
*1386 FILLER_0_36_205
*1387 FILLER_0_36_211
*1388 FILLER_0_36_235
*1389 FILLER_0_36_239
*1390 FILLER_0_36_251
*1391 FILLER_0_36_253
*1392 FILLER_0_36_257
*1393 FILLER_0_36_27
*1394 FILLER_0_36_29
*1395 FILLER_0_36_3
*1396 FILLER_0_36_301
*1397 FILLER_0_36_307
*1398 FILLER_0_36_309
*1399 FILLER_0_36_321
*1400 FILLER_0_36_333
*1401 FILLER_0_36_345
*1402 FILLER_0_36_41
*1403 FILLER_0_36_53
*1404 FILLER_0_36_65
*1405 FILLER_0_36_77
*1406 FILLER_0_36_83
*1407 FILLER_0_36_85
*1408 FILLER_0_37_111
*1409 FILLER_0_37_116
*1410 FILLER_0_37_138
*1411 FILLER_0_37_144
*1412 FILLER_0_37_148
*1413 FILLER_0_37_15
*1414 FILLER_0_37_163
*1415 FILLER_0_37_167
*1416 FILLER_0_37_169
*1417 FILLER_0_37_173
*1418 FILLER_0_37_202
*1419 FILLER_0_37_212
*1420 FILLER_0_37_253
*1421 FILLER_0_37_27
*1422 FILLER_0_37_295
*1423 FILLER_0_37_3
*1424 FILLER_0_37_307
*1425 FILLER_0_37_319
*1426 FILLER_0_37_331
*1427 FILLER_0_37_335
*1428 FILLER_0_37_337
*1429 FILLER_0_37_349
*1430 FILLER_0_37_39
*1431 FILLER_0_37_51
*1432 FILLER_0_37_55
*1433 FILLER_0_37_57
*1434 FILLER_0_37_69
*1435 FILLER_0_37_81
*1436 FILLER_0_37_87
*1437 FILLER_0_38_110
*1438 FILLER_0_38_113
*1439 FILLER_0_38_118
*1440 FILLER_0_38_130
*1441 FILLER_0_38_134
*1442 FILLER_0_38_14
*1443 FILLER_0_38_144
*1444 FILLER_0_38_150
*1445 FILLER_0_38_154
*1446 FILLER_0_38_158
*1447 FILLER_0_38_162
*1448 FILLER_0_38_166
*1449 FILLER_0_38_169
*1450 FILLER_0_38_18
*1451 FILLER_0_38_191
*1452 FILLER_0_38_195
*1453 FILLER_0_38_205
*1454 FILLER_0_38_22
*1455 FILLER_0_38_225
*1456 FILLER_0_38_244
*1457 FILLER_0_38_253
*1458 FILLER_0_38_265
*1459 FILLER_0_38_279
*1460 FILLER_0_38_281
*1461 FILLER_0_38_285
*1462 FILLER_0_38_289
*1463 FILLER_0_38_3
*1464 FILLER_0_38_301
*1465 FILLER_0_38_307
*1466 FILLER_0_38_309
*1467 FILLER_0_38_32
*1468 FILLER_0_38_321