*SPEF "ieee 1481-1999"
*DESIGN "tt_um_FreqMeter_Juan_Garcial"
*DATE "11:11:11 Fri 11 11, 1111"
*VENDOR "OpenRCX"
*PROGRAM "Parallel Extraction"
*VERSION "1.0"
*DESIGN_FLOW "NAME_SCOPE LOCAL" "PIN_CAP NONE"
*DIVIDER /
*DELIMITER :
*BUS_DELIMITER []
*T_UNIT 1 NS
*C_UNIT 1 PF
*R_UNIT 1 OHM
*L_UNIT 1 HENRY

*NAME_MAP
*3 clk
*4 ena
*5 rst_n
*6 ui_in[0]
*7 ui_in[1]
*8 ui_in[2]
*9 ui_in[3]
*10 ui_in[4]
*11 ui_in[5]
*12 ui_in[6]
*13 ui_in[7]
*14 uio_in[0]
*15 uio_in[1]
*16 uio_in[2]
*17 uio_in[3]
*18 uio_in[4]
*19 uio_in[5]
*20 uio_in[6]
*21 uio_in[7]
*22 net30
*23 net31
*24 net32
*25 net33
*26 net34
*27 net35
*28 net36
*29 net37
*30 net20
*31 net21
*32 net22
*33 net23
*34 net24
*35 net25
*36 net26
*37 net27
*38 uo_out[0]
*39 uo_out[1]
*40 uo_out[2]
*41 uo_out[3]
*42 uo_out[4]
*43 uo_out[5]
*44 net28
*45 net29
*46 _000_
*47 _001_
*48 _002_
*49 _003_
*50 _004_
*51 _005_
*52 _006_
*53 _007_
*54 _008_
*55 _009_
*56 _010_
*57 _011_
*58 _012_
*59 _013_
*60 _014_
*61 _015_
*62 _016_
*63 _017_
*64 _018_
*65 _019_
*66 _020_
*67 _021_
*68 _022_
*69 _023_
*70 _024_
*71 _025_
*72 _026_
*73 _027_
*74 _028_
*75 _029_
*76 _030_
*77 _031_
*78 _032_
*79 _033_
*80 _034_
*81 _035_
*82 _036_
*83 _037_
*84 _038_
*85 _039_
*86 _040_
*87 _041_
*88 _042_
*89 _043_
*90 _044_
*91 _045_
*92 _046_
*93 _047_
*94 _048_
*95 _049_
*96 _050_
*97 _051_
*98 _052_
*99 _053_
*100 _054_
*101 _055_
*102 _056_
*103 _057_
*104 _058_
*105 _059_
*106 _060_
*107 _061_
*108 _062_
*109 _063_
*110 _064_
*111 _065_
*112 _066_
*113 _067_
*114 _068_
*115 _069_
*116 _070_
*117 _071_
*118 _072_
*119 _073_
*120 _074_
*121 _075_
*122 _076_
*123 _077_
*124 _078_
*125 _079_
*126 _080_
*127 _081_
*128 _082_
*129 _083_
*130 _084_
*131 _085_
*132 _086_
*133 _087_
*134 _088_
*135 _089_
*136 _090_
*137 _091_
*138 _092_
*139 _093_
*140 _094_
*141 _095_
*142 _096_
*143 _097_
*144 _098_
*145 _099_
*146 _100_
*147 _101_
*148 _102_
*149 _103_
*150 _104_
*151 _105_
*152 _106_
*153 _107_
*154 _108_
*155 _109_
*156 _110_
*157 _111_
*158 _112_
*159 _113_
*160 _114_
*161 _115_
*162 _116_
*163 _117_
*164 _118_
*165 _119_
*166 _120_
*167 _121_
*168 _122_
*169 _123_
*170 _124_
*171 _125_
*172 _126_
*173 _127_
*174 _128_
*175 _129_
*176 _130_
*177 _131_
*178 _132_
*179 _133_
*180 _134_
*181 _135_
*182 _136_
*183 _137_
*184 _138_
*185 _139_
*186 _140_
*187 _141_
*188 _142_
*189 _143_
*190 _144_
*191 _145_
*192 _146_
*193 _147_
*194 _148_
*195 _149_
*196 _150_
*197 _151_
*198 _152_
*199 _153_
*200 _154_
*201 _155_
*202 _156_
*203 _157_
*204 _158_
*205 _159_
*206 _160_
*207 _161_
*208 _162_
*209 _163_
*210 _164_
*211 _165_
*212 _166_
*213 _167_
*214 _168_
*215 _169_
*216 _170_
*217 _171_
*218 _172_
*219 _173_
*220 _174_
*221 _175_
*222 _176_
*223 _177_
*224 _178_
*225 _179_
*226 _180_
*227 _181_
*228 _182_
*229 _183_
*230 _184_
*231 _185_
*232 _186_
*233 _187_
*234 _188_
*235 _189_
*236 _190_
*237 _191_
*238 _192_
*239 _193_
*240 _194_
*241 _195_
*242 _196_
*243 _197_
*244 _198_
*245 _199_
*246 _200_
*247 _201_
*248 _202_
*249 _203_
*250 _204_
*251 _205_
*252 _206_
*253 _207_
*254 _208_
*255 _209_
*256 _210_
*257 _211_
*258 _212_
*259 _213_
*260 _214_
*261 _215_
*262 _216_
*263 _217_
*264 _218_
*265 _219_
*266 _220_
*267 _221_
*268 _222_
*269 _223_
*270 _224_
*271 _225_
*272 _226_
*273 _227_
*274 _228_
*275 _229_
*276 _230_
*277 _231_
*278 _232_
*279 _233_
*280 _234_
*281 _235_
*282 _236_
*283 _237_
*284 _238_
*285 _239_
*286 _240_
*287 _241_
*288 _242_
*289 _243_
*290 _244_
*291 _245_
*292 _246_
*293 _247_
*294 _248_
*295 _249_
*296 _250_
*297 _251_
*298 _252_
*299 _253_
*300 _254_
*301 _255_
*302 _256_
*303 _257_
*304 _258_
*305 _259_
*306 _260_
*307 _261_
*308 _262_
*309 _263_
*310 _264_
*311 _265_
*312 _266_
*313 _267_
*314 _268_
*315 _269_
*316 _270_
*317 _271_
*318 _272_
*319 _273_
*320 _274_
*321 _275_
*322 _276_
*323 _277_
*324 _278_
*325 _279_
*326 _280_
*327 _281_
*328 _282_
*329 _283_
*330 _284_
*331 _285_
*332 _286_
*333 _287_
*334 _288_
*335 _289_
*336 _290_
*337 _291_
*338 _292_
*339 _293_
*340 _294_
*341 _295_
*342 _296_
*343 _297_
*344 _298_
*345 _299_
*346 _300_
*347 _301_
*348 _302_
*349 _303_
*350 _304_
*351 _305_
*352 _306_
*353 _307_
*354 _308_
*355 _309_
*356 _310_
*357 _311_
*358 _312_
*359 _313_
*360 _314_
*361 _315_
*362 _316_
*363 _317_
*364 _318_
*365 _319_
*366 _320_
*367 _321_
*368 _322_
*369 _323_
*370 _324_
*371 _325_
*372 _326_
*373 _327_
*374 _328_
*375 _329_
*376 _330_
*377 _331_
*378 _332_
*379 _333_
*380 _334_
*381 _335_
*382 _336_
*383 _337_
*384 _338_
*385 _339_
*386 _340_
*387 _341_
*388 _342_
*389 _343_
*390 _344_
*391 _345_
*392 _346_
*393 _347_
*394 _348_
*395 _349_
*396 _350_
*397 _351_
*398 _352_
*399 _353_
*400 _354_
*401 _355_
*402 _356_
*403 _357_
*404 _358_
*405 _359_
*406 _360_
*407 _361_
*408 _362_
*409 _363_
*410 _364_
*411 _365_
*412 _366_
*413 _367_
*414 _368_
*415 _369_
*416 _370_
*417 _371_
*418 _372_
*419 _373_
*420 _374_
*421 _375_
*422 _376_
*423 _377_
*424 _378_
*425 _379_
*426 _380_
*427 _381_
*428 _382_
*429 _383_
*430 _384_
*431 _385_
*432 _386_
*433 _387_
*434 _388_
*435 _389_
*436 _390_
*437 _391_
*438 _392_
*439 _393_
*440 _394_
*441 _395_
*442 _396_
*443 _397_
*444 _398_
*445 _399_
*446 _400_
*447 _401_
*448 _402_
*449 _403_
*450 _404_
*451 _405_
*452 _406_
*453 _407_
*454 _408_
*455 _409_
*456 _410_
*457 _411_
*458 _412_
*459 _413_
*460 _414_
*461 _415_
*462 _416_
*463 _417_
*464 _418_
*465 _419_
*466 _420_
*467 _421_
*468 _422_
*469 _423_
*470 _424_
*471 _425_
*472 _426_
*473 _427_
*474 _428_
*475 clk_500u
*476 clknet_0_clk
*477 clknet_3_0__leaf_clk
*478 clknet_3_1__leaf_clk
*479 clknet_3_2__leaf_clk
*480 clknet_3_3__leaf_clk
*481 clknet_3_4__leaf_clk
*482 clknet_3_5__leaf_clk
*483 clknet_3_6__leaf_clk
*484 clknet_3_7__leaf_clk
*485 contadorPulsos\.contador0\.i_A\[0\]
*486 contadorPulsos\.contador0\.i_A\[1\]
*487 contadorPulsos\.contador0\.i_A\[2\]
*488 contadorPulsos\.contador0\.i_A\[3\]
*489 contadorPulsos\.contador0\.i_Clk
*490 contadorPulsos\.contador0\.o_M1\[0\]
*491 contadorPulsos\.contador0\.r_Rst
*492 contadorPulsos\.contador1\.i_A\[0\]
*493 contadorPulsos\.contador1\.i_A\[1\]
*494 contadorPulsos\.contador1\.i_A\[2\]
*495 contadorPulsos\.contador1\.i_A\[3\]
*496 contadorPulsos\.contador1\.o_M1\[0\]
*497 contadorPulsos\.contador1\.r_Rst
*498 contadorPulsos\.contador2\.i_A\[0\]
*499 contadorPulsos\.contador2\.i_A\[1\]
*500 contadorPulsos\.contador2\.i_A\[2\]
*501 contadorPulsos\.contador2\.i_A\[3\]
*502 contadorPulsos\.contador2\.i_OL\[0\]
*503 contadorPulsos\.contador2\.i_OL\[1\]
*504 contadorPulsos\.contador2\.i_OL\[2\]
*505 contadorPulsos\.contador2\.i_OL\[3\]
*506 contadorPulsos\.contador2\.o_M1\[0\]
*507 contadorPulsos\.contador2\.r_Rst
*508 countToDisplay\.i_CLK
*509 countToDisplay\.o_Q0\[0\]
*510 countToDisplay\.o_Q0\[1\]
*511 countToDisplay\.o_Q0\[2\]
*512 countToDisplay\.o_Q0\[3\]
*513 countToDisplay\.o_Q1\[0\]
*514 countToDisplay\.o_Q1\[1\]
*515 countToDisplay\.o_Q1\[2\]
*516 countToDisplay\.o_Q1\[3\]
*517 countToDisplay\.o_Q2\[0\]
*518 countToDisplay\.o_Q2\[1\]
*519 countToDisplay\.o_Q2\[2\]
*520 countToDisplay\.o_Q2\[3\]
*521 countToDisplay\.o_Q3\[0\]
*522 countToDisplay\.o_Q3\[1\]
*523 countToDisplay\.o_Q3\[2\]
*524 countToDisplay\.o_Q3\[3\]
*525 count_a\[0\]
*526 count_a\[10\]
*527 count_a\[11\]
*528 count_a\[12\]
*529 count_a\[1\]
*530 count_a\[2\]
*531 count_a\[3\]
*532 count_a\[4\]
*533 count_a\[5\]
*534 count_a\[6\]
*535 count_a\[7\]
*536 count_a\[8\]
*537 count_a\[9\]
*538 freqDiv\.contador_q\[0\]
*539 freqDiv\.contador_q\[10\]
*540 freqDiv\.contador_q\[11\]
*541 freqDiv\.contador_q\[12\]
*542 freqDiv\.contador_q\[13\]
*543 freqDiv\.contador_q\[14\]
*544 freqDiv\.contador_q\[15\]
*545 freqDiv\.contador_q\[16\]
*546 freqDiv\.contador_q\[17\]
*547 freqDiv\.contador_q\[18\]
*548 freqDiv\.contador_q\[19\]
*549 freqDiv\.contador_q\[1\]
*550 freqDiv\.contador_q\[20\]
*551 freqDiv\.contador_q\[21\]
*552 freqDiv\.contador_q\[22\]
*553 freqDiv\.contador_q\[23\]
*554 freqDiv\.contador_q\[24\]
*555 freqDiv\.contador_q\[25\]
*556 freqDiv\.contador_q\[2\]
*557 freqDiv\.contador_q\[3\]
*558 freqDiv\.contador_q\[4\]
*559 freqDiv\.contador_q\[5\]
*560 freqDiv\.contador_q\[6\]
*561 freqDiv\.contador_q\[7\]
*562 freqDiv\.contador_q\[8\]
*563 freqDiv\.contador_q\[9\]
*564 freqDiv1\.contador_q\[0\]
*565 freqDiv1\.contador_q\[10\]
*566 freqDiv1\.contador_q\[11\]
*567 freqDiv1\.contador_q\[12\]
*568 freqDiv1\.contador_q\[13\]
*569 freqDiv1\.contador_q\[14\]
*570 freqDiv1\.contador_q\[15\]
*571 freqDiv1\.contador_q\[16\]
*572 freqDiv1\.contador_q\[17\]
*573 freqDiv1\.contador_q\[18\]
*574 freqDiv1\.contador_q\[19\]
*575 freqDiv1\.contador_q\[1\]
*576 freqDiv1\.contador_q\[20\]
*577 freqDiv1\.contador_q\[21\]
*578 freqDiv1\.contador_q\[22\]
*579 freqDiv1\.contador_q\[23\]
*580 freqDiv1\.contador_q\[24\]
*581 freqDiv1\.contador_q\[25\]
*582 freqDiv1\.contador_q\[2\]
*583 freqDiv1\.contador_q\[3\]
*584 freqDiv1\.contador_q\[4\]
*585 freqDiv1\.contador_q\[5\]
*586 freqDiv1\.contador_q\[6\]
*587 freqDiv1\.contador_q\[7\]
*588 freqDiv1\.contador_q\[8\]
*589 freqDiv1\.contador_q\[9\]
*590 freqDiv1\.o_divf
*591 net1
*592 net10
*593 net11
*594 net12
*595 net13
*596 net14
*597 net15
*598 net16
*599 net17
*600 net18
*601 net19
*602 net2
*603 net3
*604 net38
*605 net39
*606 net4
*607 net40
*608 net41
*609 net42
*610 net43
*611 net44
*612 net45
*613 net46
*614 net47
*615 net48
*616 net49
*617 net5
*618 net50
*619 net51
*620 net52
*621 net53
*622 net54
*623 net55
*624 net56
*625 net57
*626 net58
*627 net59
*628 net6
*629 net60
*630 net61
*631 net62
*632 net63
*633 net64
*634 net65
*635 net66
*636 net67
*637 net68
*638 net69
*639 net7
*640 net70
*641 net71
*642 net72
*643 net73
*644 net74
*645 net75
*646 net76
*647 net77
*648 net78
*649 net79
*650 net8
*651 net9
*652 segments_
*653 FILLER_0_0_109
*654 FILLER_0_0_113
*655 FILLER_0_0_125
*656 FILLER_0_0_137
*657 FILLER_0_0_141
*658 FILLER_0_0_15
*659 FILLER_0_0_153
*660 FILLER_0_0_165
*661 FILLER_0_0_169
*662 FILLER_0_0_181
*663 FILLER_0_0_193
*664 FILLER_0_0_197
*665 FILLER_0_0_209
*666 FILLER_0_0_221
*667 FILLER_0_0_225
*668 FILLER_0_0_237
*669 FILLER_0_0_249
*670 FILLER_0_0_253
*671 FILLER_0_0_265
*672 FILLER_0_0_27
*673 FILLER_0_0_277
*674 FILLER_0_0_281
*675 FILLER_0_0_29
*676 FILLER_0_0_293
*677 FILLER_0_0_3
*678 FILLER_0_0_305
*679 FILLER_0_0_309
*680 FILLER_0_0_321
*681 FILLER_0_0_333
*682 FILLER_0_0_337
*683 FILLER_0_0_349
*684 FILLER_0_0_41
*685 FILLER_0_0_53
*686 FILLER_0_0_57
*687 FILLER_0_0_69
*688 FILLER_0_0_81
*689 FILLER_0_0_85
*690 FILLER_0_0_97
*691 FILLER_0_10_109
*692 FILLER_0_10_121
*693 FILLER_0_10_133
*694 FILLER_0_10_139
*695 FILLER_0_10_141
*696 FILLER_0_10_15
*697 FILLER_0_10_153
*698 FILLER_0_10_165
*699 FILLER_0_10_173
*700 FILLER_0_10_179
*701 FILLER_0_10_191
*702 FILLER_0_10_195
*703 FILLER_0_10_197
*704 FILLER_0_10_212
*705 FILLER_0_10_240
*706 FILLER_0_10_246
*707 FILLER_0_10_27
*708 FILLER_0_10_276
*709 FILLER_0_10_288
*710 FILLER_0_10_29
*711 FILLER_0_10_3
*712 FILLER_0_10_307
*713 FILLER_0_10_317
*714 FILLER_0_10_342
*715 FILLER_0_10_350
*716 FILLER_0_10_41
*717 FILLER_0_10_53
*718 FILLER_0_10_65
*719 FILLER_0_10_77
*720 FILLER_0_10_83
*721 FILLER_0_10_85
*722 FILLER_0_10_97
*723 FILLER_0_11_105
*724 FILLER_0_11_111
*725 FILLER_0_11_113
*726 FILLER_0_11_125
*727 FILLER_0_11_137
*728 FILLER_0_11_149
*729 FILLER_0_11_15
*730 FILLER_0_11_161
*731 FILLER_0_11_169
*732 FILLER_0_11_189
*733 FILLER_0_11_197
*734 FILLER_0_11_251
*735 FILLER_0_11_27
*736 FILLER_0_11_3
*737 FILLER_0_11_334
*738 FILLER_0_11_337
*739 FILLER_0_11_349
*740 FILLER_0_11_39
*741 FILLER_0_11_51
*742 FILLER_0_11_55
*743 FILLER_0_11_57
*744 FILLER_0_11_69
*745 FILLER_0_11_81
*746 FILLER_0_11_93
*747 FILLER_0_12_109
*748 FILLER_0_12_121
*749 FILLER_0_12_133
*750 FILLER_0_12_139
*751 FILLER_0_12_141
*752 FILLER_0_12_15
*753 FILLER_0_12_153
*754 FILLER_0_12_165
*755 FILLER_0_12_192
*756 FILLER_0_12_197
*757 FILLER_0_12_242
*758 FILLER_0_12_27
*759 FILLER_0_12_283
*760 FILLER_0_12_289
*761 FILLER_0_12_29
*762 FILLER_0_12_3
*763 FILLER_0_12_306
*764 FILLER_0_12_312
*765 FILLER_0_12_320
*766 FILLER_0_12_346
*767 FILLER_0_12_350
*768 FILLER_0_12_41
*769 FILLER_0_12_53
*770 FILLER_0_12_65
*771 FILLER_0_12_77
*772 FILLER_0_12_83
*773 FILLER_0_12_85
*774 FILLER_0_12_97
*775 FILLER_0_13_105
*776 FILLER_0_13_111
*777 FILLER_0_13_133
*778 FILLER_0_13_145
*779 FILLER_0_13_15
*780 FILLER_0_13_157
*781 FILLER_0_13_165
*782 FILLER_0_13_194
*783 FILLER_0_13_202
*784 FILLER_0_13_210
*785 FILLER_0_13_219
*786 FILLER_0_13_223
*787 FILLER_0_13_268
*788 FILLER_0_13_27
*789 FILLER_0_13_281
*790 FILLER_0_13_293
*791 FILLER_0_13_3
*792 FILLER_0_13_305
*793 FILLER_0_13_317
*794 FILLER_0_13_330
*795 FILLER_0_13_334
*796 FILLER_0_13_337
*797 FILLER_0_13_349
*798 FILLER_0_13_39
*799 FILLER_0_13_51
*800 FILLER_0_13_55
*801 FILLER_0_13_57
*802 FILLER_0_13_69
*803 FILLER_0_13_81
*804 FILLER_0_13_93
*805 FILLER_0_14_103
*806 FILLER_0_14_131
*807 FILLER_0_14_139
*808 FILLER_0_14_141
*809 FILLER_0_14_15
*810 FILLER_0_14_153
*811 FILLER_0_14_166
*812 FILLER_0_14_183
*813 FILLER_0_14_195
*814 FILLER_0_14_197
*815 FILLER_0_14_202
*816 FILLER_0_14_211
*817 FILLER_0_14_224
*818 FILLER_0_14_236
*819 FILLER_0_14_248
*820 FILLER_0_14_253
*821 FILLER_0_14_259
*822 FILLER_0_14_27
*823 FILLER_0_14_271
*824 FILLER_0_14_276
*825 FILLER_0_14_288
*826 FILLER_0_14_29
*827 FILLER_0_14_3
*828 FILLER_0_14_300
*829 FILLER_0_14_317
*830 FILLER_0_14_344
*831 FILLER_0_14_350
*832 FILLER_0_14_41
*833 FILLER_0_14_53
*834 FILLER_0_14_65
*835 FILLER_0_14_77
*836 FILLER_0_14_83
*837 FILLER_0_14_85
*838 FILLER_0_14_97
*839 FILLER_0_15_105
*840 FILLER_0_15_111
*841 FILLER_0_15_113
*842 FILLER_0_15_146
*843 FILLER_0_15_15
*844 FILLER_0_15_154
*845 FILLER_0_15_167
*846 FILLER_0_15_180
*847 FILLER_0_15_192
*848 FILLER_0_15_207
*849 FILLER_0_15_223
*850 FILLER_0_15_241
*851 FILLER_0_15_249
*852 FILLER_0_15_258
*853 FILLER_0_15_27
*854 FILLER_0_15_281
*855 FILLER_0_15_287
*856 FILLER_0_15_295
*857 FILLER_0_15_3
*858 FILLER_0_15_306
*859 FILLER_0_15_340
*860 FILLER_0_15_348
*861 FILLER_0_15_39
*862 FILLER_0_15_51
*863 FILLER_0_15_55
*864 FILLER_0_15_57
*865 FILLER_0_15_69
*866 FILLER_0_15_81
*867 FILLER_0_15_93
*868 FILLER_0_16_105
*869 FILLER_0_16_149
*870 FILLER_0_16_15
*871 FILLER_0_16_188
*872 FILLER_0_16_227
*873 FILLER_0_16_239
*874 FILLER_0_16_251
*875 FILLER_0_16_253
*876 FILLER_0_16_258
*877 FILLER_0_16_27
*878 FILLER_0_16_270
*879 FILLER_0_16_274
*880 FILLER_0_16_282
*881 FILLER_0_16_29
*882 FILLER_0_16_3
*883 FILLER_0_16_309
*884 FILLER_0_16_320
*885 FILLER_0_16_326
*886 FILLER_0_16_346
*887 FILLER_0_16_350
*888 FILLER_0_16_41
*889 FILLER_0_16_53
*890 FILLER_0_16_65
*891 FILLER_0_16_77
*892 FILLER_0_16_83
*893 FILLER_0_16_85
*894 FILLER_0_16_97
*895 FILLER_0_17_105
*896 FILLER_0_17_111
*897 FILLER_0_17_113
*898 FILLER_0_17_117
*899 FILLER_0_17_139
*900 FILLER_0_17_144
*901 FILLER_0_17_148
*902 FILLER_0_17_15
*903 FILLER_0_17_185
*904 FILLER_0_17_210
*905 FILLER_0_17_214
*906 FILLER_0_17_220
*907 FILLER_0_17_241
*908 FILLER_0_17_247
*909 FILLER_0_17_269
*910 FILLER_0_17_27
*911 FILLER_0_17_277
*912 FILLER_0_17_288
*913 FILLER_0_17_3
*914 FILLER_0_17_308
*915 FILLER_0_17_320
*916 FILLER_0_17_328
*917 FILLER_0_17_334
*918 FILLER_0_17_337
*919 FILLER_0_17_349
*920 FILLER_0_17_39
*921 FILLER_0_17_51
*922 FILLER_0_17_55
*923 FILLER_0_17_57
*924 FILLER_0_17_69
*925 FILLER_0_17_81
*926 FILLER_0_17_93
*927 FILLER_0_18_101
*928 FILLER_0_18_118
*929 FILLER_0_18_122
*930 FILLER_0_18_127
*931 FILLER_0_18_139
*932 FILLER_0_18_149
*933 FILLER_0_18_15
*934 FILLER_0_18_171
*935 FILLER_0_18_189
*936 FILLER_0_18_195
*937 FILLER_0_18_202
*938 FILLER_0_18_214
*939 FILLER_0_18_245
*940 FILLER_0_18_251
*941 FILLER_0_18_27
*942 FILLER_0_18_29
*943 FILLER_0_18_3
*944 FILLER_0_18_302
*945 FILLER_0_18_309
*946 FILLER_0_18_321
*947 FILLER_0_18_341
*948 FILLER_0_18_349
*949 FILLER_0_18_41
*950 FILLER_0_18_53
*951 FILLER_0_18_65
*952 FILLER_0_18_77
*953 FILLER_0_18_83
*954 FILLER_0_18_85
*955 FILLER_0_18_97
*956 FILLER_0_19_113
*957 FILLER_0_19_139
*958 FILLER_0_19_15
*959 FILLER_0_19_151
*960 FILLER_0_19_159
*961 FILLER_0_19_166
*962 FILLER_0_19_169
*963 FILLER_0_19_177
*964 FILLER_0_19_189
*965 FILLER_0_19_193
*966 FILLER_0_19_202
*967 FILLER_0_19_220
*968 FILLER_0_19_225
*969 FILLER_0_19_229
*970 FILLER_0_19_257
*971 FILLER_0_19_27
*972 FILLER_0_19_3
*973 FILLER_0_19_302
*974 FILLER_0_19_314
*975 FILLER_0_19_349
*976 FILLER_0_19_39
*977 FILLER_0_19_51
*978 FILLER_0_19_55
*979 FILLER_0_19_57
*980 FILLER_0_19_69
*981 FILLER_0_19_81
*982 FILLER_0_19_93
*983 FILLER_0_1_105
*984 FILLER_0_1_111
*985 FILLER_0_1_113
*986 FILLER_0_1_125
*987 FILLER_0_1_137
*988 FILLER_0_1_149
*989 FILLER_0_1_15
*990 FILLER_0_1_161
*991 FILLER_0_1_167
*992 FILLER_0_1_169
*993 FILLER_0_1_181
*994 FILLER_0_1_193
*995 FILLER_0_1_205
*996 FILLER_0_1_217
*997 FILLER_0_1_223
*998 FILLER_0_1_225
*999 FILLER_0_1_237
*1000 FILLER_0_1_249
*1001 FILLER_0_1_261
*1002 FILLER_0_1_27
*1003 FILLER_0_1_273
*1004 FILLER_0_1_279
*1005 FILLER_0_1_281
*1006 FILLER_0_1_293
*1007 FILLER_0_1_3
*1008 FILLER_0_1_305
*1009 FILLER_0_1_317
*1010 FILLER_0_1_329
*1011 FILLER_0_1_335
*1012 FILLER_0_1_337
*1013 FILLER_0_1_349
*1014 FILLER_0_1_39
*1015 FILLER_0_1_51
*1016 FILLER_0_1_55
*1017 FILLER_0_1_57
*1018 FILLER_0_1_69
*1019 FILLER_0_1_81
*1020 FILLER_0_1_93
*1021 FILLER_0_20_15
*1022 FILLER_0_20_152
*1023 FILLER_0_20_174
*1024 FILLER_0_20_186
*1025 FILLER_0_20_197
*1026 FILLER_0_20_236
*1027 FILLER_0_20_243
*1028 FILLER_0_20_251
*1029 FILLER_0_20_253
*1030 FILLER_0_20_265
*1031 FILLER_0_20_27
*1032 FILLER_0_20_273
*1033 FILLER_0_20_283
*1034 FILLER_0_20_29
*1035 FILLER_0_20_290
*1036 FILLER_0_20_3
*1037 FILLER_0_20_302
*1038 FILLER_0_20_309
*1039 FILLER_0_20_339
*1040 FILLER_0_20_41
*1041 FILLER_0_20_53
*1042 FILLER_0_20_65
*1043 FILLER_0_20_77
*1044 FILLER_0_20_83
*1045 FILLER_0_20_85
*1046 FILLER_0_20_97
*1047 FILLER_0_21_111
*1048 FILLER_0_21_113
*1049 FILLER_0_21_137
*1050 FILLER_0_21_15
*1051 FILLER_0_21_225
*1052 FILLER_0_21_229
*1053 FILLER_0_21_246
*1054 FILLER_0_21_253
*1055 FILLER_0_21_259
*1056 FILLER_0_21_265
*1057 FILLER_0_21_27
*1058 FILLER_0_21_273
*1059 FILLER_0_21_297
*1060 FILLER_0_21_3
*1061 FILLER_0_21_305
*1062 FILLER_0_21_313
*1063 FILLER_0_21_334
*1064 FILLER_0_21_345
*1065 FILLER_0_21_39
*1066 FILLER_0_21_51
*1067 FILLER_0_21_55
*1068 FILLER_0_21_57
*1069 FILLER_0_21_69
*1070 FILLER_0_21_99
*1071 FILLER_0_22_107
*1072 FILLER_0_22_119
*1073 FILLER_0_22_126
*1074 FILLER_0_22_141
*1075 FILLER_0_22_15
*1076 FILLER_0_22_179
*1077 FILLER_0_22_213
*1078 FILLER_0_22_233
*1079 FILLER_0_22_245
*1080 FILLER_0_22_251
*1081 FILLER_0_22_253
*1082 FILLER_0_22_265
*1083 FILLER_0_22_27
*1084 FILLER_0_22_29
*1085 FILLER_0_22_3
*1086 FILLER_0_22_309
*1087 FILLER_0_22_320
*1088 FILLER_0_22_342
*1089 FILLER_0_22_350
*1090 FILLER_0_22_41
*1091 FILLER_0_22_63
*1092 FILLER_0_22_75
*1093 FILLER_0_22_79
*1094 FILLER_0_22_85
*1095 FILLER_0_23_111
*1096 FILLER_0_23_15
*1097 FILLER_0_23_157
*1098 FILLER_0_23_161
*1099 FILLER_0_23_169
*1100 FILLER_0_23_178
*1101 FILLER_0_23_184
*1102 FILLER_0_23_192
*1103 FILLER_0_23_203
*1104 FILLER_0_23_220
*1105 FILLER_0_23_225
*1106 FILLER_0_23_233
*1107 FILLER_0_23_268
*1108 FILLER_0_23_27
*1109 FILLER_0_23_281
*1110 FILLER_0_23_3
*1111 FILLER_0_23_303
*1112 FILLER_0_23_311
*1113 FILLER_0_23_348
*1114 FILLER_0_23_39
*1115 FILLER_0_23_51
*1116 FILLER_0_23_74
*1117 FILLER_0_23_99
*1118 FILLER_0_24_109
*1119 FILLER_0_24_141
*1120 FILLER_0_24_15
*1121 FILLER_0_24_164
*1122 FILLER_0_24_168
*1123 FILLER_0_24_174
*1124 FILLER_0_24_181
*1125 FILLER_0_24_193
*1126 FILLER_0_24_197
*1127 FILLER_0_24_209
*1128 FILLER_0_24_213
*1129 FILLER_0_24_241
*1130 FILLER_0_24_247
*1131 FILLER_0_24_251
*1132 FILLER_0_24_261
*1133 FILLER_0_24_27
*1134 FILLER_0_24_273
*1135 FILLER_0_24_277
*1136 FILLER_0_24_29
*1137 FILLER_0_24_293
*1138 FILLER_0_24_3
*1139 FILLER_0_24_305
*1140 FILLER_0_24_309
*1141 FILLER_0_24_317
*1142 FILLER_0_24_342
*1143 FILLER_0_24_350
*1144 FILLER_0_24_41
*1145 FILLER_0_24_82
*1146 FILLER_0_24_85
*1147 FILLER_0_25_111
*1148 FILLER_0_25_121
*1149 FILLER_0_25_143
*1150 FILLER_0_25_15
*1151 FILLER_0_25_156
*1152 FILLER_0_25_169
*1153 FILLER_0_25_178
*1154 FILLER_0_25_196
*1155 FILLER_0_25_203
*1156 FILLER_0_25_215
*1157 FILLER_0_25_250
*1158 FILLER_0_25_262
*1159 FILLER_0_25_27
*1160 FILLER_0_25_287
*1161 FILLER_0_25_295
*1162 FILLER_0_25_3
*1163 FILLER_0_25_313
*1164 FILLER_0_25_325
*1165 FILLER_0_25_333
*1166 FILLER_0_25_337
*1167 FILLER_0_25_349
*1168 FILLER_0_25_39
*1169 FILLER_0_25_48
*1170 FILLER_0_25_52
*1171 FILLER_0_25_57
*1172 FILLER_0_25_71
*1173 FILLER_0_26_106
*1174 FILLER_0_26_118
*1175 FILLER_0_26_130
*1176 FILLER_0_26_136
*1177 FILLER_0_26_141
*1178 FILLER_0_26_15
*1179 FILLER_0_26_153
*1180 FILLER_0_26_161
*1181 FILLER_0_26_179
*1182 FILLER_0_26_213
*1183 FILLER_0_26_237
*1184 FILLER_0_26_245
*1185 FILLER_0_26_263
*1186 FILLER_0_26_27
*1187 FILLER_0_26_29
*1188 FILLER_0_26_299
*1189 FILLER_0_26_3
*1190 FILLER_0_26_307
*1191 FILLER_0_26_309
*1192 FILLER_0_26_317
*1193 FILLER_0_26_343
*1194 FILLER_0_26_41
*1195 FILLER_0_26_66
*1196 FILLER_0_26_78
*1197 FILLER_0_26_85
*1198 FILLER_0_26_94
*1199 FILLER_0_27_103
*1200 FILLER_0_27_111
*1201 FILLER_0_27_113
*1202 FILLER_0_27_125
*1203 FILLER_0_27_137
*1204 FILLER_0_27_149
*1205 FILLER_0_27_15
*1206 FILLER_0_27_161
*1207 FILLER_0_27_167
*1208 FILLER_0_27_193
*1209 FILLER_0_27_199
*1210 FILLER_0_27_211
*1211 FILLER_0_27_223
*1212 FILLER_0_27_225
*1213 FILLER_0_27_237
*1214 FILLER_0_27_245
*1215 FILLER_0_27_258
*1216 FILLER_0_27_27
*1217 FILLER_0_27_271
*1218 FILLER_0_27_279
*1219 FILLER_0_27_281
*1220 FILLER_0_27_3
*1221 FILLER_0_27_308
*1222 FILLER_0_27_316
*1223 FILLER_0_27_335
*1224 FILLER_0_27_340
*1225 FILLER_0_27_348
*1226 FILLER_0_27_39
*1227 FILLER_0_27_51
*1228 FILLER_0_27_55
*1229 FILLER_0_27_57
*1230 FILLER_0_27_69
*1231 FILLER_0_27_81
*1232 FILLER_0_28_112
*1233 FILLER_0_28_124
*1234 FILLER_0_28_136
*1235 FILLER_0_28_141
*1236 FILLER_0_28_15
*1237 FILLER_0_28_153
*1238 FILLER_0_28_157
*1239 FILLER_0_28_174
*1240 FILLER_0_28_191
*1241 FILLER_0_28_195
*1242 FILLER_0_28_197
*1243 FILLER_0_28_209
*1244 FILLER_0_28_215
*1245 FILLER_0_28_240
*1246 FILLER_0_28_253
*1247 FILLER_0_28_257
*1248 FILLER_0_28_27
*1249 FILLER_0_28_274
*1250 FILLER_0_28_286
*1251 FILLER_0_28_29
*1252 FILLER_0_28_294
*1253 FILLER_0_28_3
*1254 FILLER_0_28_306
*1255 FILLER_0_28_316
*1256 FILLER_0_28_326
*1257 FILLER_0_28_346
*1258 FILLER_0_28_350
*1259 FILLER_0_28_41
*1260 FILLER_0_28_66
*1261 FILLER_0_28_74
*1262 FILLER_0_28_85
*1263 FILLER_0_29_110
*1264 FILLER_0_29_113
*1265 FILLER_0_29_125
*1266 FILLER_0_29_129
*1267 FILLER_0_29_141
*1268 FILLER_0_29_15
*1269 FILLER_0_29_153
*1270 FILLER_0_29_165
*1271 FILLER_0_29_201
*1272 FILLER_0_29_207
*1273 FILLER_0_29_244
*1274 FILLER_0_29_256
*1275 FILLER_0_29_262
*1276 FILLER_0_29_266
*1277 FILLER_0_29_27
*1278 FILLER_0_29_278
*1279 FILLER_0_29_281
*1280 FILLER_0_29_293
*1281 FILLER_0_29_3
*1282 FILLER_0_29_301
*1283 FILLER_0_29_311
*1284 FILLER_0_29_319
*1285 FILLER_0_29_330
*1286 FILLER_0_29_337
*1287 FILLER_0_29_349
*1288 FILLER_0_29_39
*1289 FILLER_0_29_51
*1290 FILLER_0_29_55
*1291 FILLER_0_29_57
*1292 FILLER_0_29_73
*1293 FILLER_0_2_109
*1294 FILLER_0_2_121
*1295 FILLER_0_2_133
*1296 FILLER_0_2_139
*1297 FILLER_0_2_141
*1298 FILLER_0_2_15
*1299 FILLER_0_2_153
*1300 FILLER_0_2_165
*1301 FILLER_0_2_177
*1302 FILLER_0_2_189
*1303 FILLER_0_2_195
*1304 FILLER_0_2_197
*1305 FILLER_0_2_209
*1306 FILLER_0_2_221
*1307 FILLER_0_2_233
*1308 FILLER_0_2_245
*1309 FILLER_0_2_251
*1310 FILLER_0_2_253
*1311 FILLER_0_2_265
*1312 FILLER_0_2_27
*1313 FILLER_0_2_277
*1314 FILLER_0_2_289
*1315 FILLER_0_2_29
*1316 FILLER_0_2_3
*1317 FILLER_0_2_301
*1318 FILLER_0_2_307
*1319 FILLER_0_2_309
*1320 FILLER_0_2_321
*1321 FILLER_0_2_333
*1322 FILLER_0_2_345
*1323 FILLER_0_2_41
*1324 FILLER_0_2_53
*1325 FILLER_0_2_65
*1326 FILLER_0_2_77
*1327 FILLER_0_2_83
*1328 FILLER_0_2_85
*1329 FILLER_0_2_97
*1330 FILLER_0_30_101
*1331 FILLER_0_30_105
*1332 FILLER_0_30_113
*1333 FILLER_0_30_138
*1334 FILLER_0_30_147
*1335 FILLER_0_30_15
*1336 FILLER_0_30_159
*1337 FILLER_0_30_167
*1338 FILLER_0_30_181
*1339 FILLER_0_30_211
*1340 FILLER_0_30_215
*1341 FILLER_0_30_220
*1342 FILLER_0_30_224
*1343 FILLER_0_30_243
*1344 FILLER_0_30_251
*1345 FILLER_0_30_253
*1346 FILLER_0_30_265
*1347 FILLER_0_30_27
*1348 FILLER_0_30_286
*1349 FILLER_0_30_29
*1350 FILLER_0_30_298
*1351 FILLER_0_30_3
*1352 FILLER_0_30_306
*1353 FILLER_0_30_309
*1354 FILLER_0_30_315
*1355 FILLER_0_30_346
*1356 FILLER_0_30_350
*1357 FILLER_0_30_41
*1358 FILLER_0_30_53
*1359 FILLER_0_30_57
*1360 FILLER_0_30_62
*1361 FILLER_0_30_68
*1362 FILLER_0_30_80
*1363 FILLER_0_31_103
*1364 FILLER_0_31_111
*1365 FILLER_0_31_113
*1366 FILLER_0_31_15
*1367 FILLER_0_31_150
*1368 FILLER_0_31_162
*1369 FILLER_0_31_196
*1370 FILLER_0_31_205
*1371 FILLER_0_31_217
*1372 FILLER_0_31_223
*1373 FILLER_0_31_225
*1374 FILLER_0_31_249
*1375 FILLER_0_31_27
*1376 FILLER_0_31_279
*1377 FILLER_0_31_3
*1378 FILLER_0_31_306
*1379 FILLER_0_31_334
*1380 FILLER_0_31_337
*1381 FILLER_0_31_349
*1382 FILLER_0_31_39
*1383 FILLER_0_31_50
*1384 FILLER_0_31_81
*1385 FILLER_0_32_118
*1386 FILLER_0_32_122
*1387 FILLER_0_32_141
*1388 FILLER_0_32_149
*1389 FILLER_0_32_15
*1390 FILLER_0_32_157
*1391 FILLER_0_32_169
*1392 FILLER_0_32_182
*1393 FILLER_0_32_190
*1394 FILLER_0_32_219
*1395 FILLER_0_32_231
*1396 FILLER_0_32_246
*1397 FILLER_0_32_253
*1398 FILLER_0_32_27
*1399 FILLER_0_32_275
*1400 FILLER_0_32_29
*1401 FILLER_0_32_3
*1402 FILLER_0_32_303
*1403 FILLER_0_32_307
*1404 FILLER_0_32_309
*1405 FILLER_0_32_317
*1406 FILLER_0_32_321
*1407 FILLER_0_32_333
*1408 FILLER_0_32_345
*1409 FILLER_0_32_41
*1410 FILLER_0_32_85
*1411 FILLER_0_32_93
*1412 FILLER_0_33_101
*1413 FILLER_0_33_109
*1414 FILLER_0_33_113
*1415 FILLER_0_33_125
*1416 FILLER_0_33_137
*1417 FILLER_0_33_141
*1418 FILLER_0_33_15
*1419 FILLER_0_33_172
*1420 FILLER_0_33_184
*1421 FILLER_0_33_221
*1422 FILLER_0_33_225
*1423 FILLER_0_33_233
*1424 FILLER_0_33_250
*1425 FILLER_0_33_262
*1426 FILLER_0_33_27
*1427 FILLER_0_33_274
*1428 FILLER_0_33_281
*1429 FILLER_0_33_287
*1430 FILLER_0_33_297
*1431 FILLER_0_33_3
*1432 FILLER_0_33_306
*1433 FILLER_0_33_337
*1434 FILLER_0_33_349
*1435 FILLER_0_33_39
*1436 FILLER_0_33_51
*1437 FILLER_0_33_55
*1438 FILLER_0_33_77
*1439 FILLER_0_33_89
*1440 FILLER_0_34_108
*1441 FILLER_0_34_120
*1442 FILLER_0_34_132
*1443 FILLER_0_34_141
*1444 FILLER_0_34_15
*1445 FILLER_0_34_155
*1446 FILLER_0_34_175
*1447 FILLER_0_34_187
*1448 FILLER_0_34_195
*1449 FILLER_0_34_197
*1450 FILLER_0_34_201
*1451 FILLER_0_34_226
*1452 FILLER_0_34_232
*1453 FILLER_0_34_249
*1454 FILLER_0_34_253
*1455 FILLER_0_34_265
*1456 FILLER_0_34_27
*1457 FILLER_0_34_29
*1458 FILLER_0_34_298
*1459 FILLER_0_34_3
*1460 FILLER_0_34_306
*1461 FILLER_0_34_309
*1462 FILLER_0_34_317
*1463 FILLER_0_34_347
*1464 FILLER_0_34_41
*1465 FILLER_0_34_53
*1466 FILLER_0_34_59
*1467 FILLER_0_34_68
*1468 FILLER_0_34_80
*1469 FILLER_0_34_85
*1470 FILLER_0_34_97
*1471 FILLER_0_35_120
*1472 FILLER_0_35_127
*1473 FILLER_0_35_15
*1474 FILLER_0_35_153
*1475 FILLER_0_35_176
*1476 FILLER_0_35_182
*1477 FILLER_0_35_194
*1478 FILLER_0_35_202
*1479 FILLER_0_35_210
*1480 FILLER_0_35_220
*1481 FILLER_0_35_225
*1482 FILLER_0_35_255
*1483 FILLER_0_35_267
*1484 FILLER_0_35_27
*1485 FILLER_0_35_281
*1486 FILLER_0_35_3
*1487 FILLER_0_35_302
*1488 FILLER_0_35_314
*1489 FILLER_0_35_337
*1490 FILLER_0_35_349
*1491 FILLER_0_35_39
*1492 FILLER_0_35_51
*1493 FILLER_0_35_55
*1494 FILLER_0_35_57
*1495 FILLER_0_35_69
*1496 FILLER_0_35_81
*1497 FILLER_0_36_135
*1498 FILLER_0_36_139
*1499 FILLER_0_36_147
*1500 FILLER_0_36_15
*1501 FILLER_0_36_184
*1502 FILLER_0_36_197
*1503 FILLER_0_36_232
*1504 FILLER_0_36_247
*1505 FILLER_0_36_251
*1506 FILLER_0_36_253
*1507 FILLER_0_36_261
*1508 FILLER_0_36_27
*1509 FILLER_0_36_29
*1510 FILLER_0_36_3
*1511 FILLER_0_36_300
*1512 FILLER_0_36_309
*1513 FILLER_0_36_343
*1514 FILLER_0_36_41
*1515 FILLER_0_36_53
*1516 FILLER_0_36_65
*1517 FILLER_0_36_77
*1518 FILLER_0_36_83
*1519 FILLER_0_36_85
*1520 FILLER_0_36_91
*1521 FILLER_0_37_107
*1522 FILLER_0_37_127
*1523 FILLER_0_37_139
*1524 FILLER_0_37_143
*1525 FILLER_0_37_15
*1526 FILLER_0_37_180
*1527 FILLER_0_37_192
*1528 FILLER_0_37_200
*1529 FILLER_0_37_223
*1530 FILLER_0_37_225
*1531 FILLER_0_37_27
*1532 FILLER_0_37_278
*1533 FILLER_0_37_3
*1534 FILLER_0_37_307
*1535 FILLER_0_37_315
*1536 FILLER_0_37_337
*1537 FILLER_0_37_349
*1538 FILLER_0_37_39
*1539 FILLER_0_37_51
*1540 FILLER_0_37_55
*1541 FILLER_0_37_57
*1542 FILLER_0_37_69
*1543 FILLER_0_37_81
*1544 FILLER_0_37_93
*1545 FILLER_0_38_102
*1546 FILLER_0_38_106
*1547 FILLER_0_38_110
*1548 FILLER_0_38_113
*1549 FILLER_0_38_118
*1550 FILLER_0_38_122
*1551 FILLER_0_38_126
*1552 FILLER_0_38_130
*1553 FILLER_0_38_134
*1554 FILLER_0_38_14
*1555 FILLER_0_38_144
*1556 FILLER_0_38_150
*1557 FILLER_0_38_161
*1558 FILLER_0_38_167
*1559 FILLER_0_38_169
*1560 FILLER_0_38_18
*1561 FILLER_0_38_181
*1562 FILLER_0_38_193
*1563 FILLER_0_38_197
*1564 FILLER_0_38_209
*1565 FILLER_0_38_22
*1566 FILLER_0_38_221
*1567 FILLER_0_38_225
*1568 FILLER_0_38_233
*1569 FILLER_0_38_238
*1570 FILLER_0_38_242
*1571 FILLER_0_38_246
*1572 FILLER_0_38_256
*1573 FILLER_0_38_262
*1574 FILLER_0_38_274
*1575 FILLER_0_38_278
*1576 FILLER_0_38_281
*1577 FILLER_0_38_286
*1578 FILLER_0_38_290
*1579 FILLER_0_38_294
*1580 FILLER_0_38_298
*1581 FILLER_0_38_3
*1582 FILLER_0_38_302
*1583 FILLER_0_38_318
*1584 FILLER_0_38_32
*1585 FILLER_0_38_38
*1586 FILLER_0_38_42
*1587 FILLER_0_38_46
*1588 FILLER_0_38_50
*1589 FILLER_0_38_54
*1590 FILLER_0_38_57
*1591 FILLER_0_38_62
*1592 FILLER_0_38_66
*1593 FILLER_0_38_70
*1594 FILLER_0_38_74
*1595 FILLER_0_38_78
*1596 FILLER_0_38_88
*1597 FILLER_0_38_94
*1598 FILLER_0_38_98
*1599 FILLER_0_3_105
*1600 FILLER_0_3_111
*1601 FILLER_0_3_113
*1602 FILLER_0_3_125
*1603 FILLER_0_3_137
*1604 FILLER_0_3_149
*1605 FILLER_0_3_15
*1606 FILLER_0_3_161
*1607 FILLER_0_3_167
*1608 FILLER_0_3_169
*1609 FILLER_0_3_181
*1610 FILLER_0_3_193