*SPEF "ieee 1481-1999"
*DESIGN "tt_um_chip_rom"
*DATE "11:11:11 Fri 11 11, 1111"
*VENDOR "OpenRCX"
*PROGRAM "Parallel Extraction"
*VERSION "1.0"
*DESIGN_FLOW "NAME_SCOPE LOCAL" "PIN_CAP NONE"
*DIVIDER /
*DELIMITER :
*BUS_DELIMITER []
*T_UNIT 1 NS
*C_UNIT 1 PF
*R_UNIT 1 OHM
*L_UNIT 1 HENRY

*NAME_MAP
*3 clk
*4 ena
*5 rst_n
*6 ui_in[0]
*7 ui_in[1]
*8 ui_in[2]
*9 ui_in[3]
*10 ui_in[4]
*11 ui_in[5]
*12 ui_in[6]
*13 ui_in[7]
*14 uio_in[0]
*15 uio_in[1]
*16 uio_in[2]
*17 uio_in[3]
*18 uio_in[4]
*19 uio_in[5]
*20 uio_in[6]
*21 uio_in[7]
*22 net9
*23 net10
*24 net11
*25 net12
*26 net13
*27 net14
*28 net15
*29 net16
*30 net17
*31 net18
*32 net19
*33 net20
*34 net21
*35 net22
*36 net23
*37 net24
*38 uo_out[0]
*39 uo_out[1]
*40 uo_out[2]
*41 uo_out[3]
*42 uo_out[4]
*43 uo_out[5]
*44 uo_out[6]
*45 uo_out[7]
*46 _000_
*47 _001_
*48 _002_
*49 _003_
*50 _004_
*51 _005_
*52 _006_
*53 _007_
*54 _008_
*55 _009_
*56 _010_
*57 _011_
*58 _012_
*59 _013_
*60 _014_
*61 _015_
*62 _016_
*63 _017_
*64 _018_
*65 _019_
*66 _020_
*67 _021_
*68 _022_
*69 _023_
*70 _024_
*71 _025_
*72 _026_
*73 _027_
*74 _028_
*75 _029_
*76 _030_
*77 _031_
*78 _032_
*79 _033_
*80 _034_
*81 _035_
*82 _036_
*83 _037_
*84 _038_
*85 _039_
*86 _040_
*87 _041_
*88 _042_
*89 _043_
*90 _044_
*91 _045_
*92 _046_
*93 _047_
*94 _048_
*95 _049_
*96 _050_
*97 _051_
*98 _052_
*99 _053_
*100 _054_
*101 _055_
*102 _056_
*103 _057_
*104 _058_
*105 _059_
*106 _060_
*107 _061_
*108 _062_
*109 _063_
*110 _064_
*111 _065_
*112 _066_
*113 _067_
*114 _068_
*115 _069_
*116 _070_
*117 _071_
*118 _072_
*119 _073_
*120 _074_
*121 _075_
*122 _076_
*123 _077_
*124 _078_
*125 _079_
*126 _080_
*127 _081_
*128 _082_
*129 _083_
*130 _084_
*131 _085_
*132 _086_
*133 _087_
*134 _088_
*135 _089_
*136 _090_
*137 _091_
*138 _092_
*139 _093_
*140 _094_
*141 _095_
*142 _096_
*143 _097_
*144 _098_
*145 _099_
*146 _100_
*147 _101_
*148 _102_
*149 _103_
*150 _104_
*151 _105_
*152 _106_
*153 _107_
*154 _108_
*155 _109_
*156 _110_
*157 _111_
*158 _112_
*159 _113_
*160 _114_
*161 _115_
*162 _116_
*163 _117_
*164 _118_
*165 _119_
*166 _120_
*167 _121_
*168 _122_
*169 _123_
*170 _124_
*171 _125_
*172 _126_
*173 _127_
*174 _128_
*175 _129_
*176 _130_
*177 _131_
*178 _132_
*179 _133_
*180 _134_
*181 _135_
*182 _136_
*183 _137_
*184 _138_
*185 _139_
*186 _140_
*187 _141_
*188 _142_
*189 _143_
*190 _144_
*191 _145_
*192 _146_
*193 _147_
*194 _148_
*195 _149_
*196 _150_
*197 _151_
*198 _152_
*199 _153_
*200 _154_
*201 _155_
*202 _156_
*203 _157_
*204 _158_
*205 _159_
*206 _160_
*207 _161_
*208 _162_
*209 _163_
*210 _164_
*211 _165_
*212 _166_
*213 _167_
*214 _168_
*215 _169_
*216 _170_
*217 _171_
*218 _172_
*219 _173_
*220 _174_
*221 _175_
*222 _176_
*223 _177_
*224 _178_
*225 _179_
*226 _180_
*227 _181_
*228 _182_
*229 _183_
*230 _184_
*231 _185_
*232 _186_
*233 _187_
*234 _188_
*235 _189_
*236 _190_
*237 _191_
*238 _192_
*239 _193_
*240 _194_
*241 _195_
*242 _196_
*243 _197_
*244 _198_
*245 _199_
*246 _200_
*247 _201_
*248 _202_
*249 _203_
*250 _204_
*251 _205_
*252 _206_
*253 _207_
*254 _208_
*255 _209_
*256 _210_
*257 _211_
*258 _212_
*259 _213_
*260 _214_
*261 _215_
*262 _216_
*263 _217_
*264 _218_
*265 _219_
*266 _220_
*267 _221_
*268 _222_
*269 _223_
*270 _224_
*271 _225_
*272 _226_
*273 _227_
*274 _228_
*275 _229_
*276 _230_
*277 _231_
*278 _232_
*279 _233_
*280 _234_
*281 _235_
*282 _236_
*283 _237_
*284 _238_
*285 _239_
*286 _240_
*287 _241_
*288 _242_
*289 _243_
*290 _244_
*291 _245_
*292 _246_
*293 _247_
*294 _248_
*295 _249_
*296 _250_
*297 _251_
*298 _252_
*299 _253_
*300 _254_
*301 _255_
*302 _256_
*303 _257_
*304 _258_
*305 _259_
*306 _260_
*307 _261_
*308 _262_
*309 _263_
*310 _264_
*311 _265_
*312 _266_
*313 _267_
*314 _268_
*315 _269_
*316 _270_
*317 _271_
*318 _272_
*319 _273_
*320 _274_
*321 _275_
*322 _276_
*323 _277_
*324 _278_
*325 _279_
*326 _280_
*327 _281_
*328 _282_
*329 _283_
*330 _284_
*331 _285_
*332 _286_
*333 _287_
*334 _288_
*335 _289_
*336 _290_
*337 _291_
*338 _292_
*339 _293_
*340 _294_
*341 _295_
*342 _296_
*343 _297_
*344 _298_
*345 _299_
*346 _300_
*347 _301_
*348 _302_
*349 _303_
*350 _304_
*351 _305_
*352 _306_
*353 _307_
*354 _308_
*355 _309_
*356 _310_
*357 _311_
*358 _312_
*359 _313_
*360 _314_
*361 _315_
*362 _316_
*363 _317_
*364 _318_
*365 _319_
*366 _320_
*367 _321_
*368 _322_
*369 _323_
*370 _324_
*371 _325_
*372 _326_
*373 _327_
*374 _328_
*375 _329_
*376 _330_
*377 _331_
*378 _332_
*379 _333_
*380 _334_
*381 _335_
*382 _336_
*383 _337_
*384 _338_
*385 _339_
*386 _340_
*387 _341_
*388 _342_
*389 _343_
*390 _344_
*391 _345_
*392 _346_
*393 _347_
*394 _348_
*395 _349_
*396 _350_
*397 _351_
*398 _352_
*399 _353_
*400 _354_
*401 _355_
*402 _356_
*403 _357_
*404 _358_
*405 _359_
*406 _360_
*407 _361_
*408 _362_
*409 _363_
*410 _364_
*411 _365_
*412 _366_
*413 _367_
*414 _368_
*415 _369_
*416 _370_
*417 _371_
*418 _372_
*419 _373_
*420 _374_
*421 net1
*422 net2
*423 net3
*424 net4
*425 net5
*426 net6
*427 net7
*428 net8
*429 FILLER_0_0_109
*430 FILLER_0_0_113
*431 FILLER_0_0_125
*432 FILLER_0_0_137
*433 FILLER_0_0_141
*434 FILLER_0_0_15
*435 FILLER_0_0_153
*436 FILLER_0_0_165
*437 FILLER_0_0_169
*438 FILLER_0_0_181
*439 FILLER_0_0_193
*440 FILLER_0_0_197
*441 FILLER_0_0_209
*442 FILLER_0_0_221
*443 FILLER_0_0_225
*444 FILLER_0_0_237
*445 FILLER_0_0_249
*446 FILLER_0_0_253
*447 FILLER_0_0_265
*448 FILLER_0_0_27
*449 FILLER_0_0_277
*450 FILLER_0_0_281
*451 FILLER_0_0_29
*452 FILLER_0_0_293
*453 FILLER_0_0_3
*454 FILLER_0_0_305
*455 FILLER_0_0_309
*456 FILLER_0_0_321
*457 FILLER_0_0_333
*458 FILLER_0_0_337
*459 FILLER_0_0_349
*460 FILLER_0_0_41
*461 FILLER_0_0_53
*462 FILLER_0_0_57
*463 FILLER_0_0_69
*464 FILLER_0_0_81
*465 FILLER_0_0_85
*466 FILLER_0_0_97
*467 FILLER_0_10_109
*468 FILLER_0_10_121
*469 FILLER_0_10_133
*470 FILLER_0_10_139
*471 FILLER_0_10_141
*472 FILLER_0_10_15
*473 FILLER_0_10_153
*474 FILLER_0_10_165
*475 FILLER_0_10_177
*476 FILLER_0_10_189
*477 FILLER_0_10_195
*478 FILLER_0_10_197
*479 FILLER_0_10_209
*480 FILLER_0_10_221
*481 FILLER_0_10_233
*482 FILLER_0_10_245
*483 FILLER_0_10_251
*484 FILLER_0_10_253
*485 FILLER_0_10_265
*486 FILLER_0_10_27
*487 FILLER_0_10_277
*488 FILLER_0_10_289
*489 FILLER_0_10_29
*490 FILLER_0_10_3
*491 FILLER_0_10_301
*492 FILLER_0_10_307
*493 FILLER_0_10_309
*494 FILLER_0_10_321
*495 FILLER_0_10_333
*496 FILLER_0_10_345
*497 FILLER_0_10_41
*498 FILLER_0_10_53
*499 FILLER_0_10_65
*500 FILLER_0_10_77
*501 FILLER_0_10_83
*502 FILLER_0_10_85
*503 FILLER_0_10_97
*504 FILLER_0_11_105
*505 FILLER_0_11_111
*506 FILLER_0_11_113
*507 FILLER_0_11_125
*508 FILLER_0_11_137
*509 FILLER_0_11_149
*510 FILLER_0_11_15
*511 FILLER_0_11_161
*512 FILLER_0_11_167
*513 FILLER_0_11_169
*514 FILLER_0_11_181
*515 FILLER_0_11_193
*516 FILLER_0_11_205
*517 FILLER_0_11_217
*518 FILLER_0_11_223
*519 FILLER_0_11_225
*520 FILLER_0_11_237
*521 FILLER_0_11_249
*522 FILLER_0_11_261
*523 FILLER_0_11_27
*524 FILLER_0_11_273
*525 FILLER_0_11_279
*526 FILLER_0_11_281
*527 FILLER_0_11_293
*528 FILLER_0_11_3
*529 FILLER_0_11_305
*530 FILLER_0_11_317
*531 FILLER_0_11_329
*532 FILLER_0_11_335
*533 FILLER_0_11_337
*534 FILLER_0_11_349
*535 FILLER_0_11_39
*536 FILLER_0_11_51
*537 FILLER_0_11_55
*538 FILLER_0_11_57
*539 FILLER_0_11_69
*540 FILLER_0_11_81
*541 FILLER_0_11_93
*542 FILLER_0_12_109
*543 FILLER_0_12_121
*544 FILLER_0_12_133
*545 FILLER_0_12_139
*546 FILLER_0_12_141
*547 FILLER_0_12_15
*548 FILLER_0_12_153
*549 FILLER_0_12_165
*550 FILLER_0_12_177
*551 FILLER_0_12_189
*552 FILLER_0_12_195
*553 FILLER_0_12_197
*554 FILLER_0_12_209
*555 FILLER_0_12_221
*556 FILLER_0_12_233
*557 FILLER_0_12_245
*558 FILLER_0_12_251
*559 FILLER_0_12_253
*560 FILLER_0_12_265
*561 FILLER_0_12_27
*562 FILLER_0_12_277
*563 FILLER_0_12_289
*564 FILLER_0_12_29
*565 FILLER_0_12_3
*566 FILLER_0_12_301
*567 FILLER_0_12_307
*568 FILLER_0_12_309
*569 FILLER_0_12_321
*570 FILLER_0_12_333
*571 FILLER_0_12_345
*572 FILLER_0_12_41
*573 FILLER_0_12_53
*574 FILLER_0_12_65
*575 FILLER_0_12_77
*576 FILLER_0_12_83
*577 FILLER_0_12_85
*578 FILLER_0_12_97
*579 FILLER_0_13_105
*580 FILLER_0_13_111
*581 FILLER_0_13_113
*582 FILLER_0_13_125
*583 FILLER_0_13_137
*584 FILLER_0_13_149
*585 FILLER_0_13_15
*586 FILLER_0_13_161
*587 FILLER_0_13_167
*588 FILLER_0_13_169
*589 FILLER_0_13_181
*590 FILLER_0_13_193
*591 FILLER_0_13_205
*592 FILLER_0_13_217
*593 FILLER_0_13_223
*594 FILLER_0_13_225
*595 FILLER_0_13_237
*596 FILLER_0_13_249
*597 FILLER_0_13_261
*598 FILLER_0_13_27
*599 FILLER_0_13_273
*600 FILLER_0_13_279
*601 FILLER_0_13_281
*602 FILLER_0_13_293
*603 FILLER_0_13_3
*604 FILLER_0_13_305
*605 FILLER_0_13_317
*606 FILLER_0_13_329
*607 FILLER_0_13_335
*608 FILLER_0_13_337
*609 FILLER_0_13_349
*610 FILLER_0_13_39
*611 FILLER_0_13_51
*612 FILLER_0_13_55
*613 FILLER_0_13_57
*614 FILLER_0_13_69
*615 FILLER_0_13_81
*616 FILLER_0_13_93
*617 FILLER_0_14_109
*618 FILLER_0_14_121
*619 FILLER_0_14_133
*620 FILLER_0_14_139
*621 FILLER_0_14_141
*622 FILLER_0_14_15
*623 FILLER_0_14_153
*624 FILLER_0_14_165
*625 FILLER_0_14_177
*626 FILLER_0_14_189
*627 FILLER_0_14_195
*628 FILLER_0_14_197
*629 FILLER_0_14_209
*630 FILLER_0_14_221
*631 FILLER_0_14_233
*632 FILLER_0_14_245
*633 FILLER_0_14_251
*634 FILLER_0_14_253
*635 FILLER_0_14_265
*636 FILLER_0_14_27
*637 FILLER_0_14_277
*638 FILLER_0_14_289
*639 FILLER_0_14_29
*640 FILLER_0_14_3
*641 FILLER_0_14_301
*642 FILLER_0_14_307
*643 FILLER_0_14_309
*644 FILLER_0_14_321
*645 FILLER_0_14_333
*646 FILLER_0_14_345
*647 FILLER_0_14_41
*648 FILLER_0_14_53
*649 FILLER_0_14_65
*650 FILLER_0_14_77
*651 FILLER_0_14_83
*652 FILLER_0_14_85
*653 FILLER_0_14_97
*654 FILLER_0_15_105
*655 FILLER_0_15_111
*656 FILLER_0_15_113
*657 FILLER_0_15_125
*658 FILLER_0_15_137
*659 FILLER_0_15_149
*660 FILLER_0_15_15
*661 FILLER_0_15_161
*662 FILLER_0_15_167
*663 FILLER_0_15_169
*664 FILLER_0_15_181
*665 FILLER_0_15_193
*666 FILLER_0_15_205
*667 FILLER_0_15_217
*668 FILLER_0_15_223
*669 FILLER_0_15_225
*670 FILLER_0_15_237
*671 FILLER_0_15_249
*672 FILLER_0_15_261
*673 FILLER_0_15_27
*674 FILLER_0_15_273
*675 FILLER_0_15_279
*676 FILLER_0_15_281
*677 FILLER_0_15_293
*678 FILLER_0_15_3
*679 FILLER_0_15_305
*680 FILLER_0_15_317
*681 FILLER_0_15_329
*682 FILLER_0_15_335
*683 FILLER_0_15_337
*684 FILLER_0_15_349
*685 FILLER_0_15_39
*686 FILLER_0_15_51
*687 FILLER_0_15_55
*688 FILLER_0_15_57
*689 FILLER_0_15_69
*690 FILLER_0_15_81
*691 FILLER_0_15_93
*692 FILLER_0_16_109
*693 FILLER_0_16_121
*694 FILLER_0_16_133
*695 FILLER_0_16_139
*696 FILLER_0_16_141
*697 FILLER_0_16_15
*698 FILLER_0_16_153
*699 FILLER_0_16_165
*700 FILLER_0_16_177
*701 FILLER_0_16_189
*702 FILLER_0_16_195
*703 FILLER_0_16_197
*704 FILLER_0_16_209
*705 FILLER_0_16_221
*706 FILLER_0_16_233
*707 FILLER_0_16_245
*708 FILLER_0_16_251
*709 FILLER_0_16_253
*710 FILLER_0_16_265
*711 FILLER_0_16_27
*712 FILLER_0_16_277
*713 FILLER_0_16_289
*714 FILLER_0_16_29
*715 FILLER_0_16_3
*716 FILLER_0_16_301
*717 FILLER_0_16_307
*718 FILLER_0_16_309
*719 FILLER_0_16_321
*720 FILLER_0_16_333
*721 FILLER_0_16_345
*722 FILLER_0_16_41
*723 FILLER_0_16_53
*724 FILLER_0_16_65
*725 FILLER_0_16_77
*726 FILLER_0_16_83
*727 FILLER_0_16_85
*728 FILLER_0_16_97
*729 FILLER_0_17_105
*730 FILLER_0_17_111
*731 FILLER_0_17_113
*732 FILLER_0_17_125
*733 FILLER_0_17_137
*734 FILLER_0_17_149
*735 FILLER_0_17_15
*736 FILLER_0_17_161
*737 FILLER_0_17_167
*738 FILLER_0_17_169
*739 FILLER_0_17_181
*740 FILLER_0_17_193
*741 FILLER_0_17_205
*742 FILLER_0_17_217
*743 FILLER_0_17_223
*744 FILLER_0_17_225
*745 FILLER_0_17_237
*746 FILLER_0_17_249
*747 FILLER_0_17_261
*748 FILLER_0_17_27
*749 FILLER_0_17_273
*750 FILLER_0_17_279
*751 FILLER_0_17_281
*752 FILLER_0_17_293
*753 FILLER_0_17_3
*754 FILLER_0_17_305
*755 FILLER_0_17_317
*756 FILLER_0_17_329
*757 FILLER_0_17_335
*758 FILLER_0_17_337
*759 FILLER_0_17_349
*760 FILLER_0_17_39
*761 FILLER_0_17_51
*762 FILLER_0_17_55
*763 FILLER_0_17_57
*764 FILLER_0_17_69
*765 FILLER_0_17_81
*766 FILLER_0_17_93
*767 FILLER_0_18_109
*768 FILLER_0_18_121
*769 FILLER_0_18_133
*770 FILLER_0_18_139
*771 FILLER_0_18_141
*772 FILLER_0_18_15
*773 FILLER_0_18_153
*774 FILLER_0_18_165
*775 FILLER_0_18_177
*776 FILLER_0_18_189
*777 FILLER_0_18_195
*778 FILLER_0_18_197
*779 FILLER_0_18_209
*780 FILLER_0_18_221
*781 FILLER_0_18_233
*782 FILLER_0_18_245
*783 FILLER_0_18_251
*784 FILLER_0_18_253
*785 FILLER_0_18_265
*786 FILLER_0_18_27
*787 FILLER_0_18_277
*788 FILLER_0_18_289
*789 FILLER_0_18_29
*790 FILLER_0_18_3
*791 FILLER_0_18_301
*792 FILLER_0_18_307
*793 FILLER_0_18_309
*794 FILLER_0_18_321
*795 FILLER_0_18_333
*796 FILLER_0_18_345
*797 FILLER_0_18_41
*798 FILLER_0_18_53
*799 FILLER_0_18_65
*800 FILLER_0_18_77
*801 FILLER_0_18_83
*802 FILLER_0_18_85
*803 FILLER_0_18_97
*804 FILLER_0_19_105
*805 FILLER_0_19_111
*806 FILLER_0_19_113
*807 FILLER_0_19_125
*808 FILLER_0_19_137
*809 FILLER_0_19_149
*810 FILLER_0_19_15
*811 FILLER_0_19_161
*812 FILLER_0_19_167
*813 FILLER_0_19_169
*814 FILLER_0_19_181
*815 FILLER_0_19_193
*816 FILLER_0_19_205
*817 FILLER_0_19_217
*818 FILLER_0_19_223
*819 FILLER_0_19_225
*820 FILLER_0_19_237
*821 FILLER_0_19_249
*822 FILLER_0_19_261
*823 FILLER_0_19_27
*824 FILLER_0_19_273
*825 FILLER_0_19_279
*826 FILLER_0_19_281
*827 FILLER_0_19_293
*828 FILLER_0_19_3
*829 FILLER_0_19_305
*830 FILLER_0_19_317
*831 FILLER_0_19_329
*832 FILLER_0_19_335
*833 FILLER_0_19_337
*834 FILLER_0_19_349
*835 FILLER_0_19_39
*836 FILLER_0_19_51
*837 FILLER_0_19_55
*838 FILLER_0_19_57
*839 FILLER_0_19_69
*840 FILLER_0_19_81
*841 FILLER_0_19_93
*842 FILLER_0_1_105
*843 FILLER_0_1_111
*844 FILLER_0_1_113
*845 FILLER_0_1_125
*846 FILLER_0_1_137
*847 FILLER_0_1_149
*848 FILLER_0_1_15
*849 FILLER_0_1_161
*850 FILLER_0_1_167
*851 FILLER_0_1_169
*852 FILLER_0_1_181
*853 FILLER_0_1_193
*854 FILLER_0_1_205
*855 FILLER_0_1_217
*856 FILLER_0_1_223
*857 FILLER_0_1_225
*858 FILLER_0_1_237
*859 FILLER_0_1_249
*860 FILLER_0_1_261
*861 FILLER_0_1_27
*862 FILLER_0_1_273
*863 FILLER_0_1_279
*864 FILLER_0_1_281
*865 FILLER_0_1_293
*866 FILLER_0_1_3
*867 FILLER_0_1_305
*868 FILLER_0_1_317
*869 FILLER_0_1_329
*870 FILLER_0_1_335
*871 FILLER_0_1_337
*872 FILLER_0_1_349
*873 FILLER_0_1_39
*874 FILLER_0_1_51
*875 FILLER_0_1_55
*876 FILLER_0_1_57
*877 FILLER_0_1_69
*878 FILLER_0_1_81
*879 FILLER_0_1_93
*880 FILLER_0_20_109
*881 FILLER_0_20_121
*882 FILLER_0_20_133
*883 FILLER_0_20_139
*884 FILLER_0_20_141
*885 FILLER_0_20_15
*886 FILLER_0_20_153
*887 FILLER_0_20_165
*888 FILLER_0_20_177
*889 FILLER_0_20_189
*890 FILLER_0_20_195
*891 FILLER_0_20_197
*892 FILLER_0_20_209
*893 FILLER_0_20_221
*894 FILLER_0_20_233
*895 FILLER_0_20_245
*896 FILLER_0_20_251
*897 FILLER_0_20_253
*898 FILLER_0_20_268
*899 FILLER_0_20_27
*900 FILLER_0_20_280
*901 FILLER_0_20_29
*902 FILLER_0_20_292
*903 FILLER_0_20_3
*904 FILLER_0_20_304
*905 FILLER_0_20_309
*906 FILLER_0_20_321
*907 FILLER_0_20_347
*908 FILLER_0_20_41
*909 FILLER_0_20_53
*910 FILLER_0_20_65
*911 FILLER_0_20_77
*912 FILLER_0_20_83
*913 FILLER_0_20_85
*914 FILLER_0_20_97
*915 FILLER_0_21_105
*916 FILLER_0_21_111
*917 FILLER_0_21_113
*918 FILLER_0_21_125
*919 FILLER_0_21_137
*920 FILLER_0_21_15
*921 FILLER_0_21_150
*922 FILLER_0_21_162
*923 FILLER_0_21_169
*924 FILLER_0_21_177
*925 FILLER_0_21_193
*926 FILLER_0_21_201
*927 FILLER_0_21_213
*928 FILLER_0_21_217
*929 FILLER_0_21_223
*930 FILLER_0_21_228
*931 FILLER_0_21_240
*932 FILLER_0_21_252
*933 FILLER_0_21_27
*934 FILLER_0_21_277
*935 FILLER_0_21_299
*936 FILLER_0_21_3
*937 FILLER_0_21_318
*938 FILLER_0_21_330
*939 FILLER_0_21_348
*940 FILLER_0_21_39
*941 FILLER_0_21_51
*942 FILLER_0_21_55
*943 FILLER_0_21_57
*944 FILLER_0_21_69
*945 FILLER_0_21_81
*946 FILLER_0_21_93
*947 FILLER_0_22_109
*948 FILLER_0_22_117
*949 FILLER_0_22_123
*950 FILLER_0_22_135
*951 FILLER_0_22_139
*952 FILLER_0_22_15
*953 FILLER_0_22_197
*954 FILLER_0_22_211
*955 FILLER_0_22_219
*956 FILLER_0_22_231
*957 FILLER_0_22_246
*958 FILLER_0_22_253
*959 FILLER_0_22_27
*960 FILLER_0_22_289
*961 FILLER_0_22_29
*962 FILLER_0_22_3
*963 FILLER_0_22_331
*964 FILLER_0_22_338
*965 FILLER_0_22_41
*966 FILLER_0_22_53
*967 FILLER_0_22_65
*968 FILLER_0_22_77
*969 FILLER_0_22_83
*970 FILLER_0_22_85
*971 FILLER_0_22_97
*972 FILLER_0_23_105
*973 FILLER_0_23_111
*974 FILLER_0_23_113
*975 FILLER_0_23_139
*976 FILLER_0_23_147
*977 FILLER_0_23_15
*978 FILLER_0_23_159
*979 FILLER_0_23_169
*980 FILLER_0_23_186
*981 FILLER_0_23_198
*982 FILLER_0_23_206
*983 FILLER_0_23_220
*984 FILLER_0_23_231
*985 FILLER_0_23_239
*986 FILLER_0_23_243
*987 FILLER_0_23_251
*988 FILLER_0_23_266
*989 FILLER_0_23_27
*990 FILLER_0_23_279
*991 FILLER_0_23_298
*992 FILLER_0_23_3
*993 FILLER_0_23_305
*994 FILLER_0_23_313
*995 FILLER_0_23_333
*996 FILLER_0_23_348
*997 FILLER_0_23_39
*998 FILLER_0_23_51
*999 FILLER_0_23_55
*1000 FILLER_0_23_57
*1001 FILLER_0_23_69
*1002 FILLER_0_23_81
*1003 FILLER_0_23_93
*1004 FILLER_0_24_105
*1005 FILLER_0_24_120
*1006 FILLER_0_24_128
*1007 FILLER_0_24_134
*1008 FILLER_0_24_141
*1009 FILLER_0_24_149
*1010 FILLER_0_24_15
*1011 FILLER_0_24_158
*1012 FILLER_0_24_170
*1013 FILLER_0_24_180
*1014 FILLER_0_24_187
*1015 FILLER_0_24_214
*1016 FILLER_0_24_218
*1017 FILLER_0_24_241
*1018 FILLER_0_24_261
*1019 FILLER_0_24_27
*1020 FILLER_0_24_286
*1021 FILLER_0_24_29
*1022 FILLER_0_24_3
*1023 FILLER_0_24_303
*1024 FILLER_0_24_307
*1025 FILLER_0_24_328
*1026 FILLER_0_24_41
*1027 FILLER_0_24_53
*1028 FILLER_0_24_65
*1029 FILLER_0_24_77
*1030 FILLER_0_24_83
*1031 FILLER_0_24_85
*1032 FILLER_0_24_97
*1033 FILLER_0_25_105
*1034 FILLER_0_25_111
*1035 FILLER_0_25_113
*1036 FILLER_0_25_134
*1037 FILLER_0_25_142
*1038 FILLER_0_25_15
*1039 FILLER_0_25_163
*1040 FILLER_0_25_167
*1041 FILLER_0_25_169
*1042 FILLER_0_25_181
*1043 FILLER_0_25_193
*1044 FILLER_0_25_197
*1045 FILLER_0_25_203
*1046 FILLER_0_25_217
*1047 FILLER_0_25_223
*1048 FILLER_0_25_234
*1049 FILLER_0_25_245
*1050 FILLER_0_25_253
*1051 FILLER_0_25_260
*1052 FILLER_0_25_27
*1053 FILLER_0_25_279
*1054 FILLER_0_25_281
*1055 FILLER_0_25_285
*1056 FILLER_0_25_292
*1057 FILLER_0_25_3
*1058 FILLER_0_25_300
*1059 FILLER_0_25_309
*1060 FILLER_0_25_318
*1061 FILLER_0_25_325
*1062 FILLER_0_25_337
*1063 FILLER_0_25_349
*1064 FILLER_0_25_39
*1065 FILLER_0_25_51
*1066 FILLER_0_25_55
*1067 FILLER_0_25_57
*1068 FILLER_0_25_69
*1069 FILLER_0_25_81
*1070 FILLER_0_25_93
*1071 FILLER_0_26_121
*1072 FILLER_0_26_134
*1073 FILLER_0_26_141
*1074 FILLER_0_26_15
*1075 FILLER_0_26_154
*1076 FILLER_0_26_166
*1077 FILLER_0_26_174
*1078 FILLER_0_26_187
*1079 FILLER_0_26_195
*1080 FILLER_0_26_211
*1081 FILLER_0_26_222
*1082 FILLER_0_26_243
*1083 FILLER_0_26_251
*1084 FILLER_0_26_269
*1085 FILLER_0_26_27
*1086 FILLER_0_26_284
*1087 FILLER_0_26_29
*1088 FILLER_0_26_3
*1089 FILLER_0_26_302
*1090 FILLER_0_26_326
*1091 FILLER_0_26_41
*1092 FILLER_0_26_53
*1093 FILLER_0_26_65
*1094 FILLER_0_26_77
*1095 FILLER_0_26_83
*1096 FILLER_0_26_85
*1097 FILLER_0_26_97
*1098 FILLER_0_27_101
*1099 FILLER_0_27_106
*1100 FILLER_0_27_113
*1101 FILLER_0_27_117
*1102 FILLER_0_27_125
*1103 FILLER_0_27_131
*1104 FILLER_0_27_140
*1105 FILLER_0_27_148
*1106 FILLER_0_27_15
*1107 FILLER_0_27_154
*1108 FILLER_0_27_166
*1109 FILLER_0_27_172
*1110 FILLER_0_27_182
*1111 FILLER_0_27_190
*1112 FILLER_0_27_198
*1113 FILLER_0_27_206
*1114 FILLER_0_27_213
*1115 FILLER_0_27_221
*1116 FILLER_0_27_239
*1117 FILLER_0_27_266
*1118 FILLER_0_27_27
*1119 FILLER_0_27_278
*1120 FILLER_0_27_281
*1121 FILLER_0_27_289
*1122 FILLER_0_27_3
*1123 FILLER_0_27_300
*1124 FILLER_0_27_309
*1125 FILLER_0_27_317
*1126 FILLER_0_27_331
*1127 FILLER_0_27_348
*1128 FILLER_0_27_39
*1129 FILLER_0_27_51
*1130 FILLER_0_27_55
*1131 FILLER_0_27_57
*1132 FILLER_0_27_69
*1133 FILLER_0_27_81
*1134 FILLER_0_27_93
*1135 FILLER_0_28_135
*1136 FILLER_0_28_139
*1137 FILLER_0_28_149
*1138 FILLER_0_28_15
*1139 FILLER_0_28_163
*1140 FILLER_0_28_171
*1141 FILLER_0_28_180
*1142 FILLER_0_28_194
*1143 FILLER_0_28_206
*1144 FILLER_0_28_218
*1145 FILLER_0_28_230
*1146 FILLER_0_28_240
*1147 FILLER_0_28_251
*1148 FILLER_0_28_253
*1149 FILLER_0_28_261
*1150 FILLER_0_28_27
*1151 FILLER_0_28_278
*1152 FILLER_0_28_283
*1153 FILLER_0_28_289
*1154 FILLER_0_28_29
*1155 FILLER_0_28_298
*1156 FILLER_0_28_3
*1157 FILLER_0_28_306
*1158 FILLER_0_28_309
*1159 FILLER_0_28_320
*1160 FILLER_0_28_332
*1161 FILLER_0_28_41
*1162 FILLER_0_28_53
*1163 FILLER_0_28_65
*1164 FILLER_0_28_77
*1165 FILLER_0_28_83
*1166 FILLER_0_28_85
*1167 FILLER_0_28_97
*1168 FILLER_0_29_108
*1169 FILLER_0_29_120
*1170 FILLER_0_29_126
*1171 FILLER_0_29_133
*1172 FILLER_0_29_139
*1173 FILLER_0_29_147
*1174 FILLER_0_29_15
*1175 FILLER_0_29_166
*1176 FILLER_0_29_169
*1177 FILLER_0_29_178
*1178 FILLER_0_29_187
*1179 FILLER_0_29_197
*1180 FILLER_0_29_205
*1181 FILLER_0_29_211
*1182 FILLER_0_29_217
*1183 FILLER_0_29_223
*1184 FILLER_0_29_225
*1185 FILLER_0_29_234
*1186 FILLER_0_29_260
*1187 FILLER_0_29_268
*1188 FILLER_0_29_27
*1189 FILLER_0_29_281
*1190 FILLER_0_29_3
*1191 FILLER_0_29_301
*1192 FILLER_0_29_305
*1193 FILLER_0_29_329
*1194 FILLER_0_29_347
*1195 FILLER_0_29_39
*1196 FILLER_0_29_51
*1197 FILLER_0_29_55
*1198 FILLER_0_29_57
*1199 FILLER_0_29_69
*1200 FILLER_0_29_81
*1201 FILLER_0_29_93
*1202 FILLER_0_2_109
*1203 FILLER_0_2_121
*1204 FILLER_0_2_133
*1205 FILLER_0_2_139
*1206 FILLER_0_2_141
*1207 FILLER_0_2_15
*1208 FILLER_0_2_153
*1209 FILLER_0_2_165
*1210 FILLER_0_2_177
*1211 FILLER_0_2_189
*1212 FILLER_0_2_195
*1213 FILLER_0_2_197
*1214 FILLER_0_2_209
*1215 FILLER_0_2_221
*1216 FILLER_0_2_233
*1217 FILLER_0_2_245
*1218 FILLER_0_2_251
*1219 FILLER_0_2_253
*1220 FILLER_0_2_265
*1221 FILLER_0_2_27
*1222 FILLER_0_2_277
*1223 FILLER_0_2_289
*1224 FILLER_0_2_29
*1225 FILLER_0_2_3
*1226 FILLER_0_2_301
*1227 FILLER_0_2_307
*1228 FILLER_0_2_309
*1229 FILLER_0_2_321
*1230 FILLER_0_2_333
*1231 FILLER_0_2_345
*1232 FILLER_0_2_41
*1233 FILLER_0_2_53
*1234 FILLER_0_2_65
*1235 FILLER_0_2_77
*1236 FILLER_0_2_83
*1237 FILLER_0_2_85
*1238 FILLER_0_2_97
*1239 FILLER_0_30_109
*1240 FILLER_0_30_121
*1241 FILLER_0_30_131
*1242 FILLER_0_30_15
*1243 FILLER_0_30_162
*1244 FILLER_0_30_182
*1245 FILLER_0_30_188
*1246 FILLER_0_30_192
*1247 FILLER_0_30_197
*1248 FILLER_0_30_216
*1249 FILLER_0_30_231
*1250 FILLER_0_30_240
*1251 FILLER_0_30_260
*1252 FILLER_0_30_268
*1253 FILLER_0_30_27
*1254 FILLER_0_30_280
*1255 FILLER_0_30_288
*1256 FILLER_0_30_29
*1257 FILLER_0_30_295
*1258 FILLER_0_30_3
*1259 FILLER_0_30_307
*1260 FILLER_0_30_309
*1261 FILLER_0_30_315
*1262 FILLER_0_30_327
*1263 FILLER_0_30_335
*1264 FILLER_0_30_343
*1265 FILLER_0_30_41
*1266 FILLER_0_30_53
*1267 FILLER_0_30_65
*1268 FILLER_0_30_77
*1269 FILLER_0_30_83
*1270 FILLER_0_30_85
*1271 FILLER_0_31_108
*1272 FILLER_0_31_121
*1273 FILLER_0_31_133
*1274 FILLER_0_31_145
*1275 FILLER_0_31_15
*1276 FILLER_0_31_159
*1277 FILLER_0_31_167
*1278 FILLER_0_31_169
*1279 FILLER_0_31_180
*1280 FILLER_0_31_192
*1281 FILLER_0_31_201
*1282 FILLER_0_31_213
*1283 FILLER_0_31_223
*1284 FILLER_0_31_225
*1285 FILLER_0_31_230
*1286 FILLER_0_31_238
*1287 FILLER_0_31_247
*1288 FILLER_0_31_255
*1289 FILLER_0_31_263
*1290 FILLER_0_31_27
*1291 FILLER_0_31_271
*1292 FILLER_0_31_287
*1293 FILLER_0_31_299
*1294 FILLER_0_31_3
*1295 FILLER_0_31_305
*1296 FILLER_0_31_328
*1297 FILLER_0_31_350
*1298 FILLER_0_31_39
*1299 FILLER_0_31_51
*1300 FILLER_0_31_55
*1301 FILLER_0_31_57
*1302 FILLER_0_31_69
*1303 FILLER_0_31_81
*1304 FILLER_0_31_93
*1305 FILLER_0_32_102
*1306 FILLER_0_32_114
*1307 FILLER_0_32_120
*1308 FILLER_0_32_131
*1309 FILLER_0_32_15
*1310 FILLER_0_32_158
*1311 FILLER_0_32_188
*1312 FILLER_0_32_204
*1313 FILLER_0_32_217
*1314 FILLER_0_32_221
*1315 FILLER_0_32_228
*1316 FILLER_0_32_246
*1317 FILLER_0_32_27
*1318 FILLER_0_32_270
*1319 FILLER_0_32_276
*1320 FILLER_0_32_280
*1321 FILLER_0_32_285
*1322 FILLER_0_32_29
*1323 FILLER_0_32_296
*1324 FILLER_0_32_3
*1325 FILLER_0_32_317
*1326 FILLER_0_32_329
*1327 FILLER_0_32_335
*1328 FILLER_0_32_344
*1329 FILLER_0_32_350
*1330 FILLER_0_32_41
*1331 FILLER_0_32_53
*1332 FILLER_0_32_65
*1333 FILLER_0_32_77
*1334 FILLER_0_32_83
*1335 FILLER_0_32_85
*1336 FILLER_0_33_113
*1337 FILLER_0_33_124
*1338 FILLER_0_33_136
*1339 FILLER_0_33_148
*1340 FILLER_0_33_15
*1341 FILLER_0_33_163
*1342 FILLER_0_33_167
*1343 FILLER_0_33_169
*1344 FILLER_0_33_181
*1345 FILLER_0_33_189
*1346 FILLER_0_33_198
*1347 FILLER_0_33_211
*1348 FILLER_0_33_223
*1349 FILLER_0_33_225
*1350 FILLER_0_33_234
*1351 FILLER_0_33_246
*1352 FILLER_0_33_252
*1353 FILLER_0_33_256
*1354 FILLER_0_33_268
*1355 FILLER_0_33_27
*1356 FILLER_0_33_278
*1357 FILLER_0_33_289
*1358 FILLER_0_33_3
*1359 FILLER_0_33_301
*1360 FILLER_0_33_309
*1361 FILLER_0_33_319
*1362 FILLER_0_33_327
*1363 FILLER_0_33_334
*1364 FILLER_0_33_337
*1365 FILLER_0_33_350
*1366 FILLER_0_33_39
*1367 FILLER_0_33_51
*1368 FILLER_0_33_55
*1369 FILLER_0_33_57
*1370 FILLER_0_33_69
*1371 FILLER_0_33_81
*1372 FILLER_0_33_93
*1373 FILLER_0_34_120
*1374 FILLER_0_34_138
*1375 FILLER_0_34_15
*1376 FILLER_0_34_153
*1377 FILLER_0_34_160
*1378 FILLER_0_34_172
*1379 FILLER_0_34_178
*1380 FILLER_0_34_185
*1381 FILLER_0_34_197
*1382 FILLER_0_34_209
*1383 FILLER_0_34_213
*1384 FILLER_0_34_221
*1385 FILLER_0_34_243
*1386 FILLER_0_34_251
*1387 FILLER_0_34_27
*1388 FILLER_0_34_280
*1389 FILLER_0_34_288
*1390 FILLER_0_34_29
*1391 FILLER_0_34_297
*1392 FILLER_0_34_3
*1393 FILLER_0_34_301
*1394 FILLER_0_34_305
*1395 FILLER_0_34_326
*1396 FILLER_0_34_335
*1397 FILLER_0_34_344
*1398 FILLER_0_34_350
*1399 FILLER_0_34_41
*1400 FILLER_0_34_53
*1401 FILLER_0_34_65
*1402 FILLER_0_34_77
*1403 FILLER_0_34_83
*1404 FILLER_0_34_85
*1405 FILLER_0_34_93
*1406 FILLER_0_35_106
*1407 FILLER_0_35_110
*1408 FILLER_0_35_113
*1409 FILLER_0_35_121
*1410 FILLER_0_35_130
*1411 FILLER_0_35_138
*1412 FILLER_0_35_149
*1413 FILLER_0_35_15
*1414 FILLER_0_35_161
*1415 FILLER_0_35_167
*1416 FILLER_0_35_177
*1417 FILLER_0_35_185
*1418 FILLER_0_35_199
*1419 FILLER_0_35_213
*1420 FILLER_0_35_221
*1421 FILLER_0_35_225
*1422 FILLER_0_35_237
*1423 FILLER_0_35_249
*1424 FILLER_0_35_253
*1425 FILLER_0_35_262
*1426 FILLER_0_35_27
*1427 FILLER_0_35_270
*1428 FILLER_0_35_275
*1429 FILLER_0_35_279
*1430 FILLER_0_35_281
*1431 FILLER_0_35_289
*1432 FILLER_0_35_295
*1433 FILLER_0_35_3
*1434 FILLER_0_35_304
*1435 FILLER_0_35_310
*1436 FILLER_0_35_317
*1437 FILLER_0_35_326
*1438 FILLER_0_35_333
*1439 FILLER_0_35_350
*1440 FILLER_0_35_39
*1441 FILLER_0_35_51
*1442 FILLER_0_35_55
*1443 FILLER_0_35_57
*1444 FILLER_0_35_69
*1445 FILLER_0_35_81
*1446 FILLER_0_35_93
*1447 FILLER_0_35_99
*1448 FILLER_0_36_116
*1449 FILLER_0_36_131
*1450 FILLER_0_36_139
*1451 FILLER_0_36_141
*1452 FILLER_0_36_15
*1453 FILLER_0_36_156
*1454 FILLER_0_36_168
*1455 FILLER_0_36_181
*1456 FILLER_0_36_193
*1457 FILLER_0_36_213
*1458 FILLER_0_36_228
*1459 FILLER_0_36_236
*1460 FILLER_0_36_249
*1461 FILLER_0_36_261
*1462 FILLER_0_36_27
*1463 FILLER_0_36_282
*1464 FILLER_0_36_288
*1465 FILLER_0_36_29
*1466 FILLER_0_36_3
*1467 FILLER_0_36_304
*1468 FILLER_0_36_309
*1469 FILLER_0_36_328
*1470 FILLER_0_36_41
*1471 FILLER_0_36_53
*1472 FILLER_0_36_65
*1473 FILLER_0_36_77
*1474 FILLER_0_36_83
*1475 FILLER_0_36_85
*1476 FILLER_0_36_97
*1477 FILLER_0_37_105
*1478 FILLER_0_37_111
*1479 FILLER_0_37_113
*1480 FILLER_0_37_125
*1481 FILLER_0_37_137
*1482 FILLER_0_37_143
*1483 FILLER_0_37_15
*1484 FILLER_0_37_157
*1485 FILLER_0_37_165
*1486 FILLER_0_37_175
*1487 FILLER_0_37_183
*1488 FILLER_0_37_202
*1489 FILLER_0_37_219
*1490 FILLER_0_37_223
*1491 FILLER_0_37_246
*1492 FILLER_0_37_267
*1493 FILLER_0_37_27
*1494 FILLER_0_37_279
*1495 FILLER_0_37_294
*1496 FILLER_0_37_3
*1497 FILLER_0_37_322
*1498 FILLER_0_37_330
*1499 FILLER_0_37_348
*1500 FILLER_0_37_39
*1501 FILLER_0_37_51
*1502 FILLER_0_37_55
*1503 FILLER_0_37_57
*1504 FILLER_0_37_69
*1505 FILLER_0_37_81
*1506 FILLER_0_37_93
*1507 FILLER_0_38_102
*1508 FILLER_0_38_113
*1509 FILLER_0_38_118
*1510 FILLER_0_38_122
*1511 FILLER_0_38_126
*1512 FILLER_0_38_130
*1513 FILLER_0_38_134
*1514 FILLER_0_38_14
*1515 FILLER_0_38_164
*1516 FILLER_0_38_175
*1517 FILLER_0_38_18
*1518 FILLER_0_38_193
*1519 FILLER_0_38_22
*1520 FILLER_0_38_223
*1521 FILLER_0_38_225
*1522 FILLER_0_38_248
*1523 FILLER_0_38_253
*1524 FILLER_0_38_259
*1525 FILLER_0_38_264
*1526 FILLER_0_38_281
*1527 FILLER_0_38_287
*1528 FILLER_0_38_3
*1529 FILLER_0_38_307
*1530 FILLER_0_38_32
*1531 FILLER_0_38_335
*1532 FILLER_0_38_349
*1533 FILLER_0_38_38
*1534 FILLER_0_38_42
*1535 FILLER_0_38_46
*1536 FILLER_0_38_50
*1537 FILLER_0_38_54
*1538 FILLER_0_38_57
*1539 FILLER_0_38_62
*1540 FILLER_0_38_66
*1541 FILLER_0_38_70
*1542 FILLER_0_38_74
*1543 FILLER_0_38_78
*1544 FILLER_0_38_88
*1545 FILLER_0_38_94
*1546 FILLER_0_38_98
*1547 FILLER_0_3_105
*1548 FILLER_0_3_111
*1549 FILLER_0_3_113
*1550 FILLER_0_3_125
*1551 FILLER_0_3_137
*1552 FILLER_0_3_149
*1553 FILLER_0_3_15
*1554 FILLER_0_3_161
*1555 FILLER_0_3_167
*1556 FILLER_0_3_169
*1557 FILLER_0_3_181
*1558 FILLER_0_3_193
*1559 FILLER_0_3_205
*1560 FILLER_0_3_217
*1561 FILLER_0_3_223
*1562 FILLER_0_3_225
*1563 FILLER_0_3_237
*1564 FILLER_0_3_249
*1565 FILLER_0_3_261
*1566 FILLER_0_3_27
*1567 FILLER_0_3_273
*1568 FILLER_0_3_279
*1569 FILLER_0_3_281
*1570 FILLER_0_3_293
*1571 FILLER_0_3_3
*1572 FILLER_0_3_305
*1573 FILLER_0_3_317
*1574 FILLER_0_3_329
*1575 FILLER_0_3_335
*1576 FILLER_0_3_337
*1577 FILLER_0_3_349
*1578 FILLER_0_3_39
*1579 FILLER_0_3_51
*1580 FILLER_0_3_55
*1581 FILLER_0_3_57
*1582 FILLER_0_3_69
*1583 FILLER_0_3_81
*1584 FILLER_0_3_93
*1585 FILLER_0_4_109
*1586 FILLER_0_4_121
*1587 FILLER_0_4_133
*1588 FILLER_0_4_139
*1589 FILLER_0_4_141
*1590 FILLER_0_4_15
*1591 FILLER_0_4_153
*1592 FILLER_0_4_165
*1593 FILLER_0_4_177
*1594 FILLER_0_4_189
*1595 FILLER_0_4_195
*1596 FILLER_0_4_197
*1597 FILLER_0_4_209
*1598 FILLER_0_4_221
*1599 FILLER_0_4_233
*1600 FILLER_0_4_245
*1601 FILLER_0_4_251
*1602 FILLER_0_4_253
*1603 FILLER_0_4_265
*1604 FILLER_0_4_27
*1605 FILLER_0_4_277
*1606 FILLER_0_4_289
*1607 FILLER_0_4_29
*1608 FILLER_0_4_3
*1609 FILLER_0_4_301
*1610 FILLER_0_4_307
*1611 FILLER_0_4_309
*1612 FILLER_0_4_321
*1613 FILLER_0_4_333
*1614 FILLER_0_4_345
*1615 FILLER_0_4_41
*1616 FILLER_0_4_53
*1617 FILLER_0_4_65
*1618 FILLER_0_4_77