*SPEF "ieee 1481-1999"
*DESIGN "tt_um_wokwi_371604537887211521"
*DATE "11:11:11 Fri 11 11, 1111"
*VENDOR "OpenRCX"
*PROGRAM "Parallel Extraction"
*VERSION "1.0"
*DESIGN_FLOW "NAME_SCOPE LOCAL" "PIN_CAP NONE"
*DIVIDER /
*DELIMITER :
*BUS_DELIMITER []
*T_UNIT 1 NS
*C_UNIT 1 PF
*R_UNIT 1 OHM
*L_UNIT 1 HENRY

*NAME_MAP
*3 clk
*4 ena
*5 rst_n
*6 ui_in[0]
*7 ui_in[1]
*8 ui_in[2]
*9 ui_in[3]
*10 ui_in[4]
*11 ui_in[5]
*12 ui_in[6]
*13 ui_in[7]
*14 uio_in[0]
*15 uio_in[1]
*16 uio_in[2]
*17 uio_in[3]
*18 uio_in[4]
*19 uio_in[5]
*20 uio_in[6]
*21 uio_in[7]
*22 net21
*23 net22
*24 net23
*25 net24
*26 net5
*27 net6
*28 net7
*29 net8
*30 net9
*31 net10
*32 net11
*33 net12
*34 net13
*35 net14
*36 net15
*37 net16
*38 net17
*39 net18
*40 net19
*41 net20
*42 uo_out[4]
*43 uo_out[5]
*44 uo_out[6]
*45 uo_out[7]
*46 net1
*47 net2
*48 net3
*49 net4
*50 FILLER_0_0_109
*51 FILLER_0_0_113
*52 FILLER_0_0_125
*53 FILLER_0_0_137
*54 FILLER_0_0_141
*55 FILLER_0_0_15
*56 FILLER_0_0_153
*57 FILLER_0_0_165
*58 FILLER_0_0_169
*59 FILLER_0_0_181
*60 FILLER_0_0_193
*61 FILLER_0_0_197
*62 FILLER_0_0_209
*63 FILLER_0_0_221
*64 FILLER_0_0_225
*65 FILLER_0_0_237
*66 FILLER_0_0_249
*67 FILLER_0_0_253
*68 FILLER_0_0_265
*69 FILLER_0_0_27
*70 FILLER_0_0_277
*71 FILLER_0_0_281
*72 FILLER_0_0_29
*73 FILLER_0_0_293
*74 FILLER_0_0_3
*75 FILLER_0_0_305
*76 FILLER_0_0_309
*77 FILLER_0_0_321
*78 FILLER_0_0_333
*79 FILLER_0_0_337
*80 FILLER_0_0_349
*81 FILLER_0_0_41
*82 FILLER_0_0_53
*83 FILLER_0_0_57
*84 FILLER_0_0_69
*85 FILLER_0_0_81
*86 FILLER_0_0_85
*87 FILLER_0_0_97
*88 FILLER_0_10_109
*89 FILLER_0_10_121
*90 FILLER_0_10_133
*91 FILLER_0_10_139
*92 FILLER_0_10_141
*93 FILLER_0_10_15
*94 FILLER_0_10_153
*95 FILLER_0_10_165
*96 FILLER_0_10_177
*97 FILLER_0_10_189
*98 FILLER_0_10_195
*99 FILLER_0_10_197
*100 FILLER_0_10_209
*101 FILLER_0_10_221
*102 FILLER_0_10_233
*103 FILLER_0_10_245
*104 FILLER_0_10_251
*105 FILLER_0_10_253
*106 FILLER_0_10_265
*107 FILLER_0_10_27
*108 FILLER_0_10_277
*109 FILLER_0_10_289
*110 FILLER_0_10_29
*111 FILLER_0_10_3
*112 FILLER_0_10_301
*113 FILLER_0_10_307
*114 FILLER_0_10_309
*115 FILLER_0_10_321
*116 FILLER_0_10_333
*117 FILLER_0_10_345
*118 FILLER_0_10_41
*119 FILLER_0_10_53
*120 FILLER_0_10_65
*121 FILLER_0_10_77
*122 FILLER_0_10_83
*123 FILLER_0_10_85
*124 FILLER_0_10_97
*125 FILLER_0_11_105
*126 FILLER_0_11_111
*127 FILLER_0_11_113
*128 FILLER_0_11_125
*129 FILLER_0_11_137
*130 FILLER_0_11_149
*131 FILLER_0_11_15
*132 FILLER_0_11_161
*133 FILLER_0_11_167
*134 FILLER_0_11_169
*135 FILLER_0_11_181
*136 FILLER_0_11_193
*137 FILLER_0_11_205
*138 FILLER_0_11_217
*139 FILLER_0_11_223
*140 FILLER_0_11_225
*141 FILLER_0_11_237
*142 FILLER_0_11_249
*143 FILLER_0_11_261
*144 FILLER_0_11_27
*145 FILLER_0_11_273
*146 FILLER_0_11_279
*147 FILLER_0_11_281
*148 FILLER_0_11_293
*149 FILLER_0_11_3
*150 FILLER_0_11_305
*151 FILLER_0_11_317
*152 FILLER_0_11_329
*153 FILLER_0_11_335
*154 FILLER_0_11_337
*155 FILLER_0_11_349
*156 FILLER_0_11_39
*157 FILLER_0_11_51
*158 FILLER_0_11_55
*159 FILLER_0_11_57
*160 FILLER_0_11_69
*161 FILLER_0_11_81
*162 FILLER_0_11_93
*163 FILLER_0_12_109
*164 FILLER_0_12_121
*165 FILLER_0_12_133
*166 FILLER_0_12_139
*167 FILLER_0_12_141
*168 FILLER_0_12_15
*169 FILLER_0_12_153
*170 FILLER_0_12_165
*171 FILLER_0_12_177
*172 FILLER_0_12_189
*173 FILLER_0_12_195
*174 FILLER_0_12_197
*175 FILLER_0_12_209
*176 FILLER_0_12_221
*177 FILLER_0_12_233
*178 FILLER_0_12_245
*179 FILLER_0_12_251
*180 FILLER_0_12_253
*181 FILLER_0_12_265
*182 FILLER_0_12_27
*183 FILLER_0_12_277
*184 FILLER_0_12_289
*185 FILLER_0_12_29
*186 FILLER_0_12_3
*187 FILLER_0_12_301
*188 FILLER_0_12_307
*189 FILLER_0_12_309
*190 FILLER_0_12_321
*191 FILLER_0_12_333
*192 FILLER_0_12_345
*193 FILLER_0_12_41
*194 FILLER_0_12_53
*195 FILLER_0_12_65
*196 FILLER_0_12_77
*197 FILLER_0_12_83
*198 FILLER_0_12_85
*199 FILLER_0_12_97
*200 FILLER_0_13_105
*201 FILLER_0_13_111
*202 FILLER_0_13_113
*203 FILLER_0_13_125
*204 FILLER_0_13_137
*205 FILLER_0_13_149
*206 FILLER_0_13_15
*207 FILLER_0_13_161
*208 FILLER_0_13_167
*209 FILLER_0_13_169
*210 FILLER_0_13_181
*211 FILLER_0_13_193
*212 FILLER_0_13_205
*213 FILLER_0_13_217
*214 FILLER_0_13_223
*215 FILLER_0_13_225
*216 FILLER_0_13_237
*217 FILLER_0_13_249
*218 FILLER_0_13_261
*219 FILLER_0_13_27
*220 FILLER_0_13_273
*221 FILLER_0_13_279
*222 FILLER_0_13_281
*223 FILLER_0_13_293
*224 FILLER_0_13_3
*225 FILLER_0_13_305
*226 FILLER_0_13_317
*227 FILLER_0_13_329
*228 FILLER_0_13_335
*229 FILLER_0_13_337
*230 FILLER_0_13_349
*231 FILLER_0_13_39
*232 FILLER_0_13_51
*233 FILLER_0_13_55
*234 FILLER_0_13_57
*235 FILLER_0_13_69
*236 FILLER_0_13_81
*237 FILLER_0_13_93
*238 FILLER_0_14_109
*239 FILLER_0_14_121
*240 FILLER_0_14_133
*241 FILLER_0_14_139
*242 FILLER_0_14_141
*243 FILLER_0_14_15
*244 FILLER_0_14_153
*245 FILLER_0_14_165
*246 FILLER_0_14_177
*247 FILLER_0_14_189
*248 FILLER_0_14_195
*249 FILLER_0_14_197
*250 FILLER_0_14_209
*251 FILLER_0_14_221
*252 FILLER_0_14_233
*253 FILLER_0_14_245
*254 FILLER_0_14_251
*255 FILLER_0_14_253
*256 FILLER_0_14_265
*257 FILLER_0_14_27
*258 FILLER_0_14_277
*259 FILLER_0_14_289
*260 FILLER_0_14_29
*261 FILLER_0_14_3
*262 FILLER_0_14_301
*263 FILLER_0_14_307
*264 FILLER_0_14_309
*265 FILLER_0_14_321
*266 FILLER_0_14_333
*267 FILLER_0_14_345
*268 FILLER_0_14_41
*269 FILLER_0_14_53
*270 FILLER_0_14_65
*271 FILLER_0_14_77
*272 FILLER_0_14_83
*273 FILLER_0_14_85
*274 FILLER_0_14_97
*275 FILLER_0_15_105
*276 FILLER_0_15_111
*277 FILLER_0_15_113
*278 FILLER_0_15_125
*279 FILLER_0_15_137
*280 FILLER_0_15_149
*281 FILLER_0_15_15
*282 FILLER_0_15_161
*283 FILLER_0_15_167
*284 FILLER_0_15_169
*285 FILLER_0_15_181
*286 FILLER_0_15_193
*287 FILLER_0_15_205
*288 FILLER_0_15_217
*289 FILLER_0_15_223
*290 FILLER_0_15_225
*291 FILLER_0_15_237
*292 FILLER_0_15_249
*293 FILLER_0_15_261
*294 FILLER_0_15_27
*295 FILLER_0_15_273
*296 FILLER_0_15_279
*297 FILLER_0_15_281
*298 FILLER_0_15_293
*299 FILLER_0_15_3
*300 FILLER_0_15_305
*301 FILLER_0_15_317
*302 FILLER_0_15_329
*303 FILLER_0_15_335
*304 FILLER_0_15_337
*305 FILLER_0_15_349
*306 FILLER_0_15_39
*307 FILLER_0_15_51
*308 FILLER_0_15_55
*309 FILLER_0_15_57
*310 FILLER_0_15_69
*311 FILLER_0_15_81
*312 FILLER_0_15_93
*313 FILLER_0_16_109
*314 FILLER_0_16_121
*315 FILLER_0_16_133
*316 FILLER_0_16_139
*317 FILLER_0_16_141
*318 FILLER_0_16_15
*319 FILLER_0_16_153
*320 FILLER_0_16_165
*321 FILLER_0_16_177
*322 FILLER_0_16_189
*323 FILLER_0_16_195
*324 FILLER_0_16_197
*325 FILLER_0_16_209
*326 FILLER_0_16_221
*327 FILLER_0_16_233
*328 FILLER_0_16_245
*329 FILLER_0_16_251
*330 FILLER_0_16_253
*331 FILLER_0_16_265
*332 FILLER_0_16_27
*333 FILLER_0_16_277
*334 FILLER_0_16_289
*335 FILLER_0_16_29
*336 FILLER_0_16_3
*337 FILLER_0_16_301
*338 FILLER_0_16_307
*339 FILLER_0_16_309
*340 FILLER_0_16_321
*341 FILLER_0_16_333
*342 FILLER_0_16_345
*343 FILLER_0_16_41
*344 FILLER_0_16_53
*345 FILLER_0_16_65
*346 FILLER_0_16_77
*347 FILLER_0_16_83
*348 FILLER_0_16_85
*349 FILLER_0_16_97
*350 FILLER_0_17_105
*351 FILLER_0_17_111
*352 FILLER_0_17_113
*353 FILLER_0_17_125
*354 FILLER_0_17_137
*355 FILLER_0_17_149
*356 FILLER_0_17_15
*357 FILLER_0_17_161
*358 FILLER_0_17_167
*359 FILLER_0_17_169
*360 FILLER_0_17_181
*361 FILLER_0_17_193
*362 FILLER_0_17_205
*363 FILLER_0_17_217
*364 FILLER_0_17_223
*365 FILLER_0_17_225
*366 FILLER_0_17_237
*367 FILLER_0_17_249
*368 FILLER_0_17_261
*369 FILLER_0_17_27
*370 FILLER_0_17_273
*371 FILLER_0_17_279
*372 FILLER_0_17_281
*373 FILLER_0_17_293
*374 FILLER_0_17_3
*375 FILLER_0_17_305
*376 FILLER_0_17_317
*377 FILLER_0_17_329
*378 FILLER_0_17_335
*379 FILLER_0_17_337
*380 FILLER_0_17_349
*381 FILLER_0_17_39
*382 FILLER_0_17_51
*383 FILLER_0_17_55
*384 FILLER_0_17_57
*385 FILLER_0_17_69
*386 FILLER_0_17_81
*387 FILLER_0_17_93
*388 FILLER_0_18_109
*389 FILLER_0_18_121
*390 FILLER_0_18_133
*391 FILLER_0_18_139
*392 FILLER_0_18_141
*393 FILLER_0_18_15
*394 FILLER_0_18_153
*395 FILLER_0_18_165
*396 FILLER_0_18_177
*397 FILLER_0_18_189
*398 FILLER_0_18_195
*399 FILLER_0_18_197
*400 FILLER_0_18_209
*401 FILLER_0_18_221
*402 FILLER_0_18_233
*403 FILLER_0_18_245
*404 FILLER_0_18_251
*405 FILLER_0_18_253
*406 FILLER_0_18_265
*407 FILLER_0_18_27
*408 FILLER_0_18_277
*409 FILLER_0_18_289
*410 FILLER_0_18_29
*411 FILLER_0_18_3
*412 FILLER_0_18_301
*413 FILLER_0_18_307
*414 FILLER_0_18_309
*415 FILLER_0_18_321
*416 FILLER_0_18_333
*417 FILLER_0_18_345
*418 FILLER_0_18_41
*419 FILLER_0_18_53
*420 FILLER_0_18_65
*421 FILLER_0_18_77
*422 FILLER_0_18_83
*423 FILLER_0_18_85
*424 FILLER_0_18_97
*425 FILLER_0_19_105
*426 FILLER_0_19_111
*427 FILLER_0_19_113
*428 FILLER_0_19_125
*429 FILLER_0_19_137
*430 FILLER_0_19_149
*431 FILLER_0_19_15
*432 FILLER_0_19_161
*433 FILLER_0_19_167
*434 FILLER_0_19_169
*435 FILLER_0_19_181
*436 FILLER_0_19_193
*437 FILLER_0_19_205
*438 FILLER_0_19_217
*439 FILLER_0_19_223
*440 FILLER_0_19_225
*441 FILLER_0_19_237
*442 FILLER_0_19_249
*443 FILLER_0_19_261
*444 FILLER_0_19_27
*445 FILLER_0_19_273
*446 FILLER_0_19_279
*447 FILLER_0_19_281
*448 FILLER_0_19_293
*449 FILLER_0_19_3
*450 FILLER_0_19_305
*451 FILLER_0_19_317
*452 FILLER_0_19_329
*453 FILLER_0_19_335
*454 FILLER_0_19_337
*455 FILLER_0_19_349
*456 FILLER_0_19_39
*457 FILLER_0_19_51
*458 FILLER_0_19_55
*459 FILLER_0_19_57
*460 FILLER_0_19_69
*461 FILLER_0_19_81
*462 FILLER_0_19_93
*463 FILLER_0_1_105
*464 FILLER_0_1_111
*465 FILLER_0_1_113
*466 FILLER_0_1_125
*467 FILLER_0_1_137
*468 FILLER_0_1_149
*469 FILLER_0_1_15
*470 FILLER_0_1_161
*471 FILLER_0_1_167
*472 FILLER_0_1_169
*473 FILLER_0_1_181
*474 FILLER_0_1_193
*475 FILLER_0_1_205
*476 FILLER_0_1_217
*477 FILLER_0_1_223
*478 FILLER_0_1_225
*479 FILLER_0_1_237
*480 FILLER_0_1_249
*481 FILLER_0_1_261
*482 FILLER_0_1_27
*483 FILLER_0_1_273
*484 FILLER_0_1_279
*485 FILLER_0_1_281
*486 FILLER_0_1_293
*487 FILLER_0_1_3
*488 FILLER_0_1_305
*489 FILLER_0_1_317
*490 FILLER_0_1_329
*491 FILLER_0_1_335
*492 FILLER_0_1_337
*493 FILLER_0_1_349
*494 FILLER_0_1_39
*495 FILLER_0_1_51
*496 FILLER_0_1_55
*497 FILLER_0_1_57
*498 FILLER_0_1_69
*499 FILLER_0_1_81
*500 FILLER_0_1_93
*501 FILLER_0_20_109
*502 FILLER_0_20_121
*503 FILLER_0_20_133
*504 FILLER_0_20_139
*505 FILLER_0_20_141
*506 FILLER_0_20_15
*507 FILLER_0_20_153
*508 FILLER_0_20_165
*509 FILLER_0_20_177
*510 FILLER_0_20_189
*511 FILLER_0_20_195
*512 FILLER_0_20_197
*513 FILLER_0_20_209
*514 FILLER_0_20_221
*515 FILLER_0_20_233
*516 FILLER_0_20_245
*517 FILLER_0_20_251
*518 FILLER_0_20_253
*519 FILLER_0_20_265
*520 FILLER_0_20_27
*521 FILLER_0_20_277
*522 FILLER_0_20_289
*523 FILLER_0_20_29
*524 FILLER_0_20_3
*525 FILLER_0_20_301
*526 FILLER_0_20_307
*527 FILLER_0_20_309
*528 FILLER_0_20_321
*529 FILLER_0_20_333
*530 FILLER_0_20_345
*531 FILLER_0_20_41
*532 FILLER_0_20_53
*533 FILLER_0_20_65
*534 FILLER_0_20_77
*535 FILLER_0_20_83
*536 FILLER_0_20_85
*537 FILLER_0_20_97
*538 FILLER_0_21_105
*539 FILLER_0_21_111
*540 FILLER_0_21_113
*541 FILLER_0_21_125
*542 FILLER_0_21_137
*543 FILLER_0_21_149
*544 FILLER_0_21_15
*545 FILLER_0_21_161
*546 FILLER_0_21_167
*547 FILLER_0_21_169
*548 FILLER_0_21_181
*549 FILLER_0_21_193
*550 FILLER_0_21_205
*551 FILLER_0_21_217
*552 FILLER_0_21_223
*553 FILLER_0_21_225
*554 FILLER_0_21_237
*555 FILLER_0_21_249
*556 FILLER_0_21_261
*557 FILLER_0_21_27
*558 FILLER_0_21_273
*559 FILLER_0_21_279
*560 FILLER_0_21_281
*561 FILLER_0_21_293
*562 FILLER_0_21_3
*563 FILLER_0_21_305
*564 FILLER_0_21_317
*565 FILLER_0_21_329
*566 FILLER_0_21_335
*567 FILLER_0_21_337
*568 FILLER_0_21_349
*569 FILLER_0_21_39
*570 FILLER_0_21_51
*571 FILLER_0_21_55
*572 FILLER_0_21_57
*573 FILLER_0_21_69
*574 FILLER_0_21_81
*575 FILLER_0_21_93
*576 FILLER_0_22_109
*577 FILLER_0_22_121
*578 FILLER_0_22_133
*579 FILLER_0_22_139
*580 FILLER_0_22_141
*581 FILLER_0_22_15
*582 FILLER_0_22_153
*583 FILLER_0_22_165
*584 FILLER_0_22_177
*585 FILLER_0_22_189
*586 FILLER_0_22_195
*587 FILLER_0_22_197
*588 FILLER_0_22_209
*589 FILLER_0_22_221
*590 FILLER_0_22_233
*591 FILLER_0_22_245
*592 FILLER_0_22_251
*593 FILLER_0_22_253
*594 FILLER_0_22_265
*595 FILLER_0_22_27
*596 FILLER_0_22_277
*597 FILLER_0_22_289
*598 FILLER_0_22_29
*599 FILLER_0_22_3
*600 FILLER_0_22_301
*601 FILLER_0_22_307
*602 FILLER_0_22_309
*603 FILLER_0_22_321
*604 FILLER_0_22_333
*605 FILLER_0_22_345
*606 FILLER_0_22_41
*607 FILLER_0_22_53
*608 FILLER_0_22_65
*609 FILLER_0_22_77
*610 FILLER_0_22_83
*611 FILLER_0_22_85
*612 FILLER_0_22_97
*613 FILLER_0_23_105
*614 FILLER_0_23_111
*615 FILLER_0_23_113
*616 FILLER_0_23_125
*617 FILLER_0_23_137
*618 FILLER_0_23_149
*619 FILLER_0_23_15
*620 FILLER_0_23_161
*621 FILLER_0_23_167
*622 FILLER_0_23_169
*623 FILLER_0_23_181
*624 FILLER_0_23_193
*625 FILLER_0_23_205
*626 FILLER_0_23_217
*627 FILLER_0_23_223
*628 FILLER_0_23_225
*629 FILLER_0_23_237
*630 FILLER_0_23_249
*631 FILLER_0_23_261
*632 FILLER_0_23_27
*633 FILLER_0_23_273
*634 FILLER_0_23_279
*635 FILLER_0_23_281
*636 FILLER_0_23_293
*637 FILLER_0_23_3
*638 FILLER_0_23_305
*639 FILLER_0_23_317
*640 FILLER_0_23_329
*641 FILLER_0_23_335
*642 FILLER_0_23_337
*643 FILLER_0_23_349
*644 FILLER_0_23_39
*645 FILLER_0_23_51
*646 FILLER_0_23_55
*647 FILLER_0_23_57
*648 FILLER_0_23_69
*649 FILLER_0_23_81
*650 FILLER_0_23_93
*651 FILLER_0_24_109
*652 FILLER_0_24_121
*653 FILLER_0_24_133
*654 FILLER_0_24_139
*655 FILLER_0_24_141
*656 FILLER_0_24_15
*657 FILLER_0_24_153
*658 FILLER_0_24_165
*659 FILLER_0_24_177
*660 FILLER_0_24_189
*661 FILLER_0_24_195
*662 FILLER_0_24_197
*663 FILLER_0_24_209
*664 FILLER_0_24_221
*665 FILLER_0_24_233
*666 FILLER_0_24_245
*667 FILLER_0_24_251
*668 FILLER_0_24_253
*669 FILLER_0_24_265
*670 FILLER_0_24_27
*671 FILLER_0_24_277
*672 FILLER_0_24_289
*673 FILLER_0_24_29
*674 FILLER_0_24_3
*675 FILLER_0_24_301
*676 FILLER_0_24_307
*677 FILLER_0_24_309
*678 FILLER_0_24_321
*679 FILLER_0_24_333
*680 FILLER_0_24_345
*681 FILLER_0_24_41
*682 FILLER_0_24_53
*683 FILLER_0_24_65
*684 FILLER_0_24_77
*685 FILLER_0_24_83
*686 FILLER_0_24_85
*687 FILLER_0_24_97
*688 FILLER_0_25_105
*689 FILLER_0_25_111
*690 FILLER_0_25_113
*691 FILLER_0_25_125
*692 FILLER_0_25_137
*693 FILLER_0_25_149
*694 FILLER_0_25_15
*695 FILLER_0_25_161
*696 FILLER_0_25_167
*697 FILLER_0_25_169
*698 FILLER_0_25_181
*699 FILLER_0_25_193
*700 FILLER_0_25_205
*701 FILLER_0_25_217
*702 FILLER_0_25_223
*703 FILLER_0_25_225
*704 FILLER_0_25_237
*705 FILLER_0_25_249
*706 FILLER_0_25_261
*707 FILLER_0_25_27
*708 FILLER_0_25_273
*709 FILLER_0_25_279
*710 FILLER_0_25_281
*711 FILLER_0_25_293
*712 FILLER_0_25_3
*713 FILLER_0_25_305
*714 FILLER_0_25_317
*715 FILLER_0_25_329
*716 FILLER_0_25_335
*717 FILLER_0_25_337
*718 FILLER_0_25_349
*719 FILLER_0_25_39
*720 FILLER_0_25_51
*721 FILLER_0_25_55
*722 FILLER_0_25_57
*723 FILLER_0_25_69
*724 FILLER_0_25_81
*725 FILLER_0_25_93
*726 FILLER_0_26_109
*727 FILLER_0_26_121
*728 FILLER_0_26_133
*729 FILLER_0_26_139
*730 FILLER_0_26_141
*731 FILLER_0_26_15
*732 FILLER_0_26_153
*733 FILLER_0_26_165
*734 FILLER_0_26_177
*735 FILLER_0_26_189
*736 FILLER_0_26_195
*737 FILLER_0_26_197
*738 FILLER_0_26_209
*739 FILLER_0_26_221
*740 FILLER_0_26_233
*741 FILLER_0_26_245
*742 FILLER_0_26_251
*743 FILLER_0_26_253
*744 FILLER_0_26_265
*745 FILLER_0_26_27
*746 FILLER_0_26_277
*747 FILLER_0_26_289
*748 FILLER_0_26_29
*749 FILLER_0_26_3
*750 FILLER_0_26_301
*751 FILLER_0_26_307
*752 FILLER_0_26_309
*753 FILLER_0_26_321
*754 FILLER_0_26_333
*755 FILLER_0_26_345
*756 FILLER_0_26_41
*757 FILLER_0_26_53
*758 FILLER_0_26_65
*759 FILLER_0_26_77
*760 FILLER_0_26_83
*761 FILLER_0_26_85
*762 FILLER_0_26_97
*763 FILLER_0_27_105
*764 FILLER_0_27_111
*765 FILLER_0_27_113
*766 FILLER_0_27_125
*767 FILLER_0_27_137
*768 FILLER_0_27_149
*769 FILLER_0_27_15
*770 FILLER_0_27_161
*771 FILLER_0_27_167
*772 FILLER_0_27_169
*773 FILLER_0_27_181
*774 FILLER_0_27_193
*775 FILLER_0_27_205
*776 FILLER_0_27_217
*777 FILLER_0_27_223
*778 FILLER_0_27_225
*779 FILLER_0_27_237
*780 FILLER_0_27_249
*781 FILLER_0_27_261
*782 FILLER_0_27_27
*783 FILLER_0_27_273
*784 FILLER_0_27_279
*785 FILLER_0_27_281
*786 FILLER_0_27_293
*787 FILLER_0_27_3
*788 FILLER_0_27_305
*789 FILLER_0_27_317
*790 FILLER_0_27_329
*791 FILLER_0_27_335
*792 FILLER_0_27_337
*793 FILLER_0_27_349
*794 FILLER_0_27_39
*795 FILLER_0_27_51
*796 FILLER_0_27_55
*797 FILLER_0_27_57
*798 FILLER_0_27_69
*799 FILLER_0_27_81
*800 FILLER_0_27_93
*801 FILLER_0_28_109
*802 FILLER_0_28_121
*803 FILLER_0_28_133
*804 FILLER_0_28_139
*805 FILLER_0_28_141
*806 FILLER_0_28_15
*807 FILLER_0_28_153
*808 FILLER_0_28_165
*809 FILLER_0_28_177
*810 FILLER_0_28_189
*811 FILLER_0_28_195
*812 FILLER_0_28_197
*813 FILLER_0_28_209
*814 FILLER_0_28_221
*815 FILLER_0_28_233
*816 FILLER_0_28_245
*817 FILLER_0_28_251
*818 FILLER_0_28_253
*819 FILLER_0_28_265
*820 FILLER_0_28_27
*821 FILLER_0_28_277
*822 FILLER_0_28_289
*823 FILLER_0_28_29
*824 FILLER_0_28_3
*825 FILLER_0_28_301
*826 FILLER_0_28_307
*827 FILLER_0_28_309
*828 FILLER_0_28_321
*829 FILLER_0_28_333
*830 FILLER_0_28_345
*831 FILLER_0_28_41
*832 FILLER_0_28_53
*833 FILLER_0_28_65
*834 FILLER_0_28_77
*835 FILLER_0_28_83
*836 FILLER_0_28_85
*837 FILLER_0_28_97
*838 FILLER_0_29_105
*839 FILLER_0_29_111
*840 FILLER_0_29_113
*841 FILLER_0_29_125
*842 FILLER_0_29_137
*843 FILLER_0_29_149
*844 FILLER_0_29_15
*845 FILLER_0_29_161
*846 FILLER_0_29_167
*847 FILLER_0_29_169
*848 FILLER_0_29_181
*849 FILLER_0_29_193
*850 FILLER_0_29_205
*851 FILLER_0_29_217
*852 FILLER_0_29_223
*853 FILLER_0_29_225
*854 FILLER_0_29_237
*855 FILLER_0_29_249
*856 FILLER_0_29_261
*857 FILLER_0_29_27
*858 FILLER_0_29_273
*859 FILLER_0_29_279
*860 FILLER_0_29_281
*861 FILLER_0_29_293
*862 FILLER_0_29_3
*863 FILLER_0_29_305
*864 FILLER_0_29_317
*865 FILLER_0_29_329
*866 FILLER_0_29_335
*867 FILLER_0_29_337
*868 FILLER_0_29_349
*869 FILLER_0_29_39
*870 FILLER_0_29_51
*871 FILLER_0_29_55
*872 FILLER_0_29_57
*873 FILLER_0_29_69
*874 FILLER_0_29_81
*875 FILLER_0_29_93
*876 FILLER_0_2_109
*877 FILLER_0_2_121
*878 FILLER_0_2_133
*879 FILLER_0_2_139
*880 FILLER_0_2_141
*881 FILLER_0_2_15
*882 FILLER_0_2_153
*883 FILLER_0_2_165
*884 FILLER_0_2_177
*885 FILLER_0_2_189
*886 FILLER_0_2_195
*887 FILLER_0_2_197
*888 FILLER_0_2_209
*889 FILLER_0_2_221
*890 FILLER_0_2_233
*891 FILLER_0_2_245
*892 FILLER_0_2_251
*893 FILLER_0_2_253
*894 FILLER_0_2_265
*895 FILLER_0_2_27
*896 FILLER_0_2_277
*897 FILLER_0_2_289
*898 FILLER_0_2_29
*899 FILLER_0_2_3
*900 FILLER_0_2_301
*901 FILLER_0_2_307
*902 FILLER_0_2_309
*903 FILLER_0_2_321
*904 FILLER_0_2_333
*905 FILLER_0_2_345
*906 FILLER_0_2_41
*907 FILLER_0_2_53
*908 FILLER_0_2_65
*909 FILLER_0_2_77
*910 FILLER_0_2_83
*911 FILLER_0_2_85
*912 FILLER_0_2_97
*913 FILLER_0_30_109
*914 FILLER_0_30_121
*915 FILLER_0_30_133
*916 FILLER_0_30_139
*917 FILLER_0_30_141
*918 FILLER_0_30_15
*919 FILLER_0_30_153
*920 FILLER_0_30_165
*921 FILLER_0_30_177
*922 FILLER_0_30_189
*923 FILLER_0_30_195
*924 FILLER_0_30_197
*925 FILLER_0_30_209
*926 FILLER_0_30_221
*927 FILLER_0_30_233
*928 FILLER_0_30_245
*929 FILLER_0_30_251
*930 FILLER_0_30_253
*931 FILLER_0_30_265
*932 FILLER_0_30_27
*933 FILLER_0_30_277
*934 FILLER_0_30_289
*935 FILLER_0_30_29
*936 FILLER_0_30_3
*937 FILLER_0_30_301
*938 FILLER_0_30_307
*939 FILLER_0_30_309
*940 FILLER_0_30_321
*941 FILLER_0_30_333
*942 FILLER_0_30_345
*943 FILLER_0_30_41
*944 FILLER_0_30_53
*945 FILLER_0_30_65
*946 FILLER_0_30_77
*947 FILLER_0_30_83
*948 FILLER_0_30_85
*949 FILLER_0_30_97
*950 FILLER_0_31_105
*951 FILLER_0_31_111
*952 FILLER_0_31_113
*953 FILLER_0_31_125
*954 FILLER_0_31_137
*955 FILLER_0_31_149
*956 FILLER_0_31_15
*957 FILLER_0_31_161
*958 FILLER_0_31_167
*959 FILLER_0_31_169
*960 FILLER_0_31_181
*961 FILLER_0_31_193
*962 FILLER_0_31_205
*963 FILLER_0_31_217
*964 FILLER_0_31_223
*965 FILLER_0_31_225
*966 FILLER_0_31_237
*967 FILLER_0_31_249
*968 FILLER_0_31_261
*969 FILLER_0_31_27
*970 FILLER_0_31_273
*971 FILLER_0_31_279
*972 FILLER_0_31_281
*973 FILLER_0_31_293
*974 FILLER_0_31_3
*975 FILLER_0_31_305
*976 FILLER_0_31_317
*977 FILLER_0_31_329
*978 FILLER_0_31_335
*979 FILLER_0_31_337
*980 FILLER_0_31_349
*981 FILLER_0_31_39
*982 FILLER_0_31_51
*983 FILLER_0_31_55
*984 FILLER_0_31_57
*985 FILLER_0_31_69
*986 FILLER_0_31_81
*987 FILLER_0_31_93
*988 FILLER_0_32_109
*989 FILLER_0_32_121
*990 FILLER_0_32_133
*991 FILLER_0_32_139
*992 FILLER_0_32_141
*993 FILLER_0_32_15
*994 FILLER_0_32_153
*995 FILLER_0_32_165
*996 FILLER_0_32_177
*997 FILLER_0_32_189
*998 FILLER_0_32_195
*999 FILLER_0_32_197
*1000 FILLER_0_32_209
*1001 FILLER_0_32_221
*1002 FILLER_0_32_233
*1003 FILLER_0_32_245
*1004 FILLER_0_32_251
*1005 FILLER_0_32_253
*1006 FILLER_0_32_265
*1007 FILLER_0_32_27
*1008 FILLER_0_32_277
*1009 FILLER_0_32_289
*1010 FILLER_0_32_29
*1011 FILLER_0_32_3
*1012 FILLER_0_32_301
*1013 FILLER_0_32_307
*1014 FILLER_0_32_309
*1015 FILLER_0_32_321
*1016 FILLER_0_32_333
*1017 FILLER_0_32_345
*1018 FILLER_0_32_41
*1019 FILLER_0_32_53
*1020 FILLER_0_32_65
*1021 FILLER_0_32_77
*1022 FILLER_0_32_83
*1023 FILLER_0_32_85
*1024 FILLER_0_32_97
*1025 FILLER_0_33_105
*1026 FILLER_0_33_111
*1027 FILLER_0_33_113
*1028 FILLER_0_33_125
*1029 FILLER_0_33_137
*1030 FILLER_0_33_149
*1031 FILLER_0_33_15
*1032 FILLER_0_33_161
*1033 FILLER_0_33_167
*1034 FILLER_0_33_169
*1035 FILLER_0_33_181
*1036 FILLER_0_33_193
*1037 FILLER_0_33_205
*1038 FILLER_0_33_217
*1039 FILLER_0_33_223
*1040 FILLER_0_33_225
*1041 FILLER_0_33_237
*1042 FILLER_0_33_249
*1043 FILLER_0_33_261
*1044 FILLER_0_33_27
*1045 FILLER_0_33_273
*1046 FILLER_0_33_279
*1047 FILLER_0_33_281
*1048 FILLER_0_33_293
*1049 FILLER_0_33_3
*1050 FILLER_0_33_305
*1051 FILLER_0_33_317
*1052 FILLER_0_33_329
*1053 FILLER_0_33_335
*1054 FILLER_0_33_337
*1055 FILLER_0_33_349
*1056 FILLER_0_33_39
*1057 FILLER_0_33_51
*1058 FILLER_0_33_55
*1059 FILLER_0_33_57
*1060 FILLER_0_33_69
*1061 FILLER_0_33_81
*1062 FILLER_0_33_93
*1063 FILLER_0_34_109
*1064 FILLER_0_34_121
*1065 FILLER_0_34_133
*1066 FILLER_0_34_139
*1067 FILLER_0_34_141
*1068 FILLER_0_34_15
*1069 FILLER_0_34_153
*1070 FILLER_0_34_165
*1071 FILLER_0_34_177
*1072 FILLER_0_34_189
*1073 FILLER_0_34_195
*1074 FILLER_0_34_197
*1075 FILLER_0_34_209
*1076 FILLER_0_34_221
*1077 FILLER_0_34_233
*1078 FILLER_0_34_245
*1079 FILLER_0_34_251
*1080 FILLER_0_34_253
*1081 FILLER_0_34_265
*1082 FILLER_0_34_27
*1083 FILLER_0_34_277
*1084 FILLER_0_34_289
*1085 FILLER_0_34_29
*1086 FILLER_0_34_3
*1087 FILLER_0_34_301
*1088 FILLER_0_34_307
*1089 FILLER_0_34_309
*1090 FILLER_0_34_321
*1091 FILLER_0_34_333
*1092 FILLER_0_34_345
*1093 FILLER_0_34_41
*1094 FILLER_0_34_53
*1095 FILLER_0_34_65
*1096 FILLER_0_34_77
*1097 FILLER_0_34_83
*1098 FILLER_0_34_85
*1099 FILLER_0_34_97
*1100 FILLER_0_35_105
*1101 FILLER_0_35_111
*1102 FILLER_0_35_113
*1103 FILLER_0_35_125
*1104 FILLER_0_35_137
*1105 FILLER_0_35_149
*1106 FILLER_0_35_15
*1107 FILLER_0_35_161
*1108 FILLER_0_35_167
*1109 FILLER_0_35_169
*1110 FILLER_0_35_181
*1111 FILLER_0_35_193
*1112 FILLER_0_35_205
*1113 FILLER_0_35_217
*1114 FILLER_0_35_223
*1115 FILLER_0_35_225
*1116 FILLER_0_35_237
*1117 FILLER_0_35_249
*1118 FILLER_0_35_261
*1119 FILLER_0_35_27
*1120 FILLER_0_35_273
*1121 FILLER_0_35_279
*1122 FILLER_0_35_281
*1123 FILLER_0_35_293
*1124 FILLER_0_35_3
*1125 FILLER_0_35_305
*1126 FILLER_0_35_317
*1127 FILLER_0_35_329
*1128 FILLER_0_35_335
*1129 FILLER_0_35_337
*1130 FILLER_0_35_349
*1131 FILLER_0_35_39
*1132 FILLER_0_35_51
*1133 FILLER_0_35_55
*1134 FILLER_0_35_57
*1135 FILLER_0_35_69
*1136 FILLER_0_35_81
*1137 FILLER_0_35_93
*1138 FILLER_0_36_109
*1139 FILLER_0_36_121
*1140 FILLER_0_36_133
*1141 FILLER_0_36_139
*1142 FILLER_0_36_141
*1143 FILLER_0_36_15
*1144 FILLER_0_36_153
*1145 FILLER_0_36_165
*1146 FILLER_0_36_177
*1147 FILLER_0_36_189
*1148 FILLER_0_36_195
*1149 FILLER_0_36_197
*1150 FILLER_0_36_209
*1151 FILLER_0_36_221
*1152 FILLER_0_36_233
*1153 FILLER_0_36_245
*1154 FILLER_0_36_251
*1155 FILLER_0_36_253
*1156 FILLER_0_36_265
*1157 FILLER_0_36_27
*1158 FILLER_0_36_277
*1159 FILLER_0_36_289
*1160 FILLER_0_36_29
*1161 FILLER_0_36_3
*1162 FILLER_0_36_301
*1163 FILLER_0_36_307
*1164 FILLER_0_36_309
*1165 FILLER_0_36_321
*1166 FILLER_0_36_333
*1167 FILLER_0_36_345
*1168 FILLER_0_36_41
*1169 FILLER_0_36_53
*1170 FILLER_0_36_65
*1171 FILLER_0_36_77
*1172 FILLER_0_36_83
*1173 FILLER_0_36_85
*1174 FILLER_0_36_97
*1175 FILLER_0_37_105
*1176 FILLER_0_37_111
*1177 FILLER_0_37_113
*1178 FILLER_0_37_125
*1179 FILLER_0_37_137
*1180 FILLER_0_37_149
*1181 FILLER_0_37_15
*1182 FILLER_0_37_161
*1183 FILLER_0_37_167
*1184 FILLER_0_37_169
*1185 FILLER_0_37_183
*1186 FILLER_0_37_195
*1187 FILLER_0_37_207
*1188 FILLER_0_37_219
*1189 FILLER_0_37_223
*1190 FILLER_0_37_225
*1191 FILLER_0_37_237
*1192 FILLER_0_37_249
*1193 FILLER_0_37_261
*1194 FILLER_0_37_27
*1195 FILLER_0_37_273
*1196 FILLER_0_37_279
*1197 FILLER_0_37_281
*1198 FILLER_0_37_293
*1199 FILLER_0_37_3
*1200 FILLER_0_37_305
*1201 FILLER_0_37_317
*1202 FILLER_0_37_329
*1203 FILLER_0_37_335
*1204 FILLER_0_37_337
*1205 FILLER_0_37_349
*1206 FILLER_0_37_39
*1207 FILLER_0_37_51
*1208 FILLER_0_37_55
*1209 FILLER_0_37_57
*1210 FILLER_0_37_69
*1211 FILLER_0_37_81
*1212 FILLER_0_37_93
*1213 FILLER_0_38_102
*1214 FILLER_0_38_106
*1215 FILLER_0_38_110
*1216 FILLER_0_38_113
*1217 FILLER_0_38_118
*1218 FILLER_0_38_122
*1219 FILLER_0_38_126
*1220 FILLER_0_38_130
*1221 FILLER_0_38_134
*1222 FILLER_0_38_14
*1223 FILLER_0_38_141
*1224 FILLER_0_38_153
*1225 FILLER_0_38_165
*1226 FILLER_0_38_169
*1227 FILLER_0_38_18
*1228 FILLER_0_38_192
*1229 FILLER_0_38_200
*1230 FILLER_0_38_212
*1231 FILLER_0_38_22
*1232 FILLER_0_38_225
*1233 FILLER_0_38_237
*1234 FILLER_0_38_249
*1235 FILLER_0_38_253
*1236 FILLER_0_38_265
*1237 FILLER_0_38_270
*1238 FILLER_0_38_274
*1239 FILLER_0_38_278
*1240 FILLER_0_38_281
*1241 FILLER_0_38_286
*1242 FILLER_0_38_290
*1243 FILLER_0_38_294
*1244 FILLER_0_38_3
*1245 FILLER_0_38_306
*1246 FILLER_0_38_309
*1247 FILLER_0_38_32
*1248 FILLER_0_38_321
*1249 FILLER_0_38_333
*1250 FILLER_0_38_337
*1251 FILLER_0_38_349
*1252 FILLER_0_38_38
*1253 FILLER_0_38_42
*1254 FILLER_0_38_46
*1255 FILLER_0_38_50
*1256 FILLER_0_38_54
*1257 FILLER_0_38_57
*1258 FILLER_0_38_62
*1259 FILLER_0_38_66
*1260 FILLER_0_38_70
*1261 FILLER_0_38_74
*1262 FILLER_0_38_78
*1263 FILLER_0_38_88
*1264 FILLER_0_38_94
*1265 FILLER_0_38_98
*1266 FILLER_0_3_105
*1267 FILLER_0_3_111
*1268 FILLER_0_3_113
*1269 FILLER_0_3_125
*1270 FILLER_0_3_137
*1271 FILLER_0_3_149
*1272 FILLER_0_3_15
*1273 FILLER_0_3_161
*1274 FILLER_0_3_167
*1275 FILLER_0_3_169
*1276 FILLER_0_3_181
*1277 FILLER_0_3_193
*1278 FILLER_0_3_205
*1279 FILLER_0_3_217
*1280 FILLER_0_3_223
*1281 FILLER_0_3_225
*1282 FILLER_0_3_237
*1283 FILLER_0_3_249
*1284 FILLER_0_3_261
*1285 FILLER_0_3_27
*1286 FILLER_0_3_273
*1287 FILLER_0_3_279
*1288 FILLER_0_3_281
*1289 FILLER_0_3_293
*1290 FILLER_0_3_3
*1291 FILLER_0_3_305
*1292 FILLER_0_3_317
*1293 FILLER_0_3_329
*1294 FILLER_0_3_335
*1295 FILLER_0_3_337
*1296 FILLER_0_3_349
*1297 FILLER_0_3_39
*1298 FILLER_0_3_51
*1299 FILLER_0_3_55
*1300 FILLER_0_3_57
*1301 FILLER_0_3_69
*1302 FILLER_0_3_81
*1303 FILLER_0_3_93
*1304 FILLER_0_4_109
*1305 FILLER_0_4_121
*1306 FILLER_0_4_133
*1307 FILLER_0_4_139
*1308 FILLER_0_4_141
*1309 FILLER_0_4_15
*1310 FILLER_0_4_153
*1311 FILLER_0_4_165
*1312 FILLER_0_4_177
*1313 FILLER_0_4_189
*1314 FILLER_0_4_195
*1315 FILLER_0_4_197
*1316 FILLER_0_4_209
*1317 FILLER_0_4_221
*1318 FILLER_0_4_233
*1319 FILLER_0_4_245
*1320 FILLER_0_4_251
*1321 FILLER_0_4_253
*1322 FILLER_0_4_265
*1323 FILLER_0_4_27
*1324 FILLER_0_4_277
*1325 FILLER_0_4_289
*1326 FILLER_0_4_29
*1327 FILLER_0_4_3
*1328 FILLER_0_4_301
*1329 FILLER_0_4_307
*1330 FILLER_0_4_309
*1331 FILLER_0_4_321
*1332 FILLER_0_4_333
*1333 FILLER_0_4_345
*1334 FILLER_0_4_41
*1335 FILLER_0_4_53
*1336 FILLER_0_4_65
*1337 FILLER_0_4_77
*1338 FILLER_0_4_83
*1339 FILLER_0_4_85
*1340 FILLER_0_4_97
*1341 FILLER_0_5_105
*1342 FILLER_0_5_111
*1343 FILLER_0_5_113
*1344 FILLER_0_5_125
*1345 FILLER_0_5_137
*1346 FILLER_0_5_149
*1347 FILLER_0_5_15
*1348 FILLER_0_5_161
*1349 FILLER_0_5_167
*1350 FILLER_0_5_169
*1351 FILLER_0_5_181
*1352 FILLER_0_5_193
*1353 FILLER_0_5_205
*1354 FILLER_0_5_217
*1355 FILLER_0_5_223
*1356 FILLER_0_5_225
*1357 FILLER_0_5_237
*1358 FILLER_0_5_249
*1359 FILLER_0_5_261
*1360 FILLER_0_5_27
*1361 FILLER_0_5_273
*1362 FILLER_0_5_279
*1363 FILLER_0_5_281
*1364 FILLER_0_5_293
*1365 FILLER_0_5_3
*1366 FILLER_0_5_305
*1367 FILLER_0_5_317
*1368 FILLER_0_5_329
*1369 FILLER_0_5_335
*1370 FILLER_0_5_337
*1371 FILLER_0_5_349
*1372 FILLER_0_5_39
*1373 FILLER_0_5_51
*1374 FILLER_0_5_55
*1375 FILLER_0_5_57
*1376 FILLER_0_5_69
*1377 FILLER_0_5_81
*1378 FILLER_0_5_93
*1379 FILLER_0_6_109
*1380 FILLER_0_6_121
*1381 FILLER_0_6_133
*1382 FILLER_0_6_139
*1383 FILLER_0_6_141
*1384 FILLER_0_6_15
*1385 FILLER_0_6_153
*1386 FILLER_0_6_165
*1387 FILLER_0_6_177
*1388 FILLER_0_6_189
*1389 FILLER_0_6_195
*1390 FILLER_0_6_197
*1391 FILLER_0_6_209
*1392 FILLER_0_6_221
*1393 FILLER_0_6_233
*1394 FILLER_0_6_245
*1395 FILLER_0_6_251
*1396 FILLER_0_6_253
*1397 FILLER_0_6_265
*1398 FILLER_0_6_27
*1399 FILLER_0_6_277
*1400 FILLER_0_6_289
*1401 FILLER_0_6_29
*1402 FILLER_0_6_3
*1403 FILLER_0_6_301
*1404 FILLER_0_6_307
*1405 FILLER_0_6_309
*1406 FILLER_0_6_321
*1407 FILLER_0_6_333
*1408 FILLER_0_6_345
*1409 FILLER_0_6_41
*1410 FILLER_0_6_53
*1411 FILLER_0_6_65
*1412 FILLER_0_6_77
*1413 FILLER_0_6_83
*1414 FILLER_0_6_85
*1415 FILLER_0_6_97
*1416 FILLER_0_7_105
*1417 FILLER_0_7_111
*1418 FILLER_0_7_113
*1419 FILLER_0_7_125
*1420 FILLER_0_7_137
*1421 FILLER_0_7_149
*1422 FILLER_0_7_15
*1423 FILLER_0_7_161
*1424 FILLER_0_7_167
*1425 FILLER_0_7_169
*1426 FILLER_0_7_181
*1427 FILLER_0_7_193
*1428 FILLER_0_7_205
*1429 FILLER_0_7_217
*1430 FILLER_0_7_223
*1431 FILLER_0_7_225
*1432 FILLER_0_7_237
*1433 FILLER_0_7_249
*1434 FILLER_0_7_261
*1435 FILLER_0_7_27
*1436 FILLER_0_7_273
*1437 FILLER_0_7_279
*1438 FILLER_0_7_281
*1439 FILLER_0_7_293
*1440 FILLER_0_7_3
*1441 FILLER_0_7_305
*1442 FILLER_0_7_317
*1443 FILLER_0_7_329
*1444 FILLER_0_7_335
*1445 FILLER_0_7_337
*1446 FILLER_0_7_349
*1447 FILLER_0_7_39
*1448 FILLER_0_7_51
*1449 FILLER_0_7_55
*1450 FILLER_0_7_57
*1451 FILLER_0_7_69
*1452 FILLER_0_7_81
*1453 FILLER_0_7_93