*SPEF "ieee 1481-1999"
*DESIGN "tt_um_pwl_RaulprTech"
*DATE "11:11:11 Fri 11 11, 1111"
*VENDOR "OpenRCX"
*PROGRAM "Parallel Extraction"
*VERSION "1.0"
*DESIGN_FLOW "NAME_SCOPE LOCAL" "PIN_CAP NONE"
*DIVIDER /
*DELIMITER :
*BUS_DELIMITER []
*T_UNIT 1 NS
*C_UNIT 1 PF
*R_UNIT 1 OHM
*L_UNIT 1 HENRY

*NAME_MAP
*3 clk
*4 ena
*5 rst_n
*6 ui_in[0]
*7 ui_in[1]
*8 ui_in[2]
*9 ui_in[3]
*10 ui_in[4]
*11 ui_in[5]
*12 ui_in[6]
*13 ui_in[7]
*14 uio_in[0]
*15 uio_in[1]
*16 uio_in[2]
*17 uio_in[3]
*18 uio_in[4]
*19 uio_in[5]
*20 uio_in[6]
*21 uio_in[7]
*22 net8
*23 net9
*24 net10
*25 net11
*26 net12
*27 net13
*28 net14
*29 net15
*30 net16
*31 net17
*32 net18
*33 net19
*34 net20
*35 net21
*36 net22
*37 net23
*38 uo_out[0]
*39 uo_out[1]
*40 uo_out[2]
*41 uo_out[3]
*42 uo_out[4]
*43 uo_out[5]
*44 uo_out[6]
*45 uo_out[7]
*46 M0\.adder1\.num1\[0\]
*47 M0\.adder1\.num1\[1\]
*48 M0\.adder1\.num1\[2\]
*49 M0\.adder1\.num1\[3\]
*50 M0\.adder1\.num1\[4\]
*51 M0\.adder1\.num1\[5\]
*52 M0\.adder1\.num1\[6\]
*53 _000_
*54 _001_
*55 _002_
*56 _003_
*57 _004_
*58 _005_
*59 _006_
*60 _007_
*61 _008_
*62 _009_
*63 _010_
*64 _011_
*65 _012_
*66 _013_
*67 _014_
*68 _015_
*69 _016_
*70 _017_
*71 _018_
*72 _019_
*73 _020_
*74 _021_
*75 _022_
*76 _023_
*77 _024_
*78 _025_
*79 _026_
*80 _027_
*81 _028_
*82 _029_
*83 _030_
*84 _031_
*85 _032_
*86 _033_
*87 _034_
*88 _035_
*89 _036_
*90 _037_
*91 _038_
*92 _039_
*93 _040_
*94 _041_
*95 _042_
*96 _043_
*97 _044_
*98 _045_
*99 _046_
*100 _047_
*101 _048_
*102 _049_
*103 _050_
*104 _051_
*105 _052_
*106 clknet_0_clk
*107 clknet_1_0__leaf_clk
*108 clknet_1_1__leaf_clk
*109 net1
*110 net2
*111 net3
*112 net4
*113 net5
*114 net6
*115 net7
*116 FILLER_0_0_109
*117 FILLER_0_0_113
*118 FILLER_0_0_125
*119 FILLER_0_0_137
*120 FILLER_0_0_141
*121 FILLER_0_0_15
*122 FILLER_0_0_153
*123 FILLER_0_0_165
*124 FILLER_0_0_169
*125 FILLER_0_0_181
*126 FILLER_0_0_193
*127 FILLER_0_0_197
*128 FILLER_0_0_209
*129 FILLER_0_0_221
*130 FILLER_0_0_225
*131 FILLER_0_0_237
*132 FILLER_0_0_249
*133 FILLER_0_0_253
*134 FILLER_0_0_265
*135 FILLER_0_0_27
*136 FILLER_0_0_277
*137 FILLER_0_0_281
*138 FILLER_0_0_29
*139 FILLER_0_0_293
*140 FILLER_0_0_3
*141 FILLER_0_0_305
*142 FILLER_0_0_309
*143 FILLER_0_0_321
*144 FILLER_0_0_333
*145 FILLER_0_0_337
*146 FILLER_0_0_349
*147 FILLER_0_0_41
*148 FILLER_0_0_53
*149 FILLER_0_0_57
*150 FILLER_0_0_69
*151 FILLER_0_0_81
*152 FILLER_0_0_85
*153 FILLER_0_0_97
*154 FILLER_0_10_109
*155 FILLER_0_10_121
*156 FILLER_0_10_133
*157 FILLER_0_10_139
*158 FILLER_0_10_141
*159 FILLER_0_10_15
*160 FILLER_0_10_153
*161 FILLER_0_10_165
*162 FILLER_0_10_177
*163 FILLER_0_10_189
*164 FILLER_0_10_195
*165 FILLER_0_10_197
*166 FILLER_0_10_209
*167 FILLER_0_10_221
*168 FILLER_0_10_233
*169 FILLER_0_10_245
*170 FILLER_0_10_251
*171 FILLER_0_10_253
*172 FILLER_0_10_265
*173 FILLER_0_10_27
*174 FILLER_0_10_277
*175 FILLER_0_10_289
*176 FILLER_0_10_29
*177 FILLER_0_10_3
*178 FILLER_0_10_301
*179 FILLER_0_10_307
*180 FILLER_0_10_309
*181 FILLER_0_10_321
*182 FILLER_0_10_333
*183 FILLER_0_10_345
*184 FILLER_0_10_41
*185 FILLER_0_10_53
*186 FILLER_0_10_65
*187 FILLER_0_10_77
*188 FILLER_0_10_83
*189 FILLER_0_10_85
*190 FILLER_0_10_97
*191 FILLER_0_11_105
*192 FILLER_0_11_111
*193 FILLER_0_11_113
*194 FILLER_0_11_125
*195 FILLER_0_11_137
*196 FILLER_0_11_149
*197 FILLER_0_11_15
*198 FILLER_0_11_161
*199 FILLER_0_11_167
*200 FILLER_0_11_169
*201 FILLER_0_11_181
*202 FILLER_0_11_193
*203 FILLER_0_11_205
*204 FILLER_0_11_217
*205 FILLER_0_11_223
*206 FILLER_0_11_225
*207 FILLER_0_11_237
*208 FILLER_0_11_249
*209 FILLER_0_11_261
*210 FILLER_0_11_27
*211 FILLER_0_11_273
*212 FILLER_0_11_279
*213 FILLER_0_11_281
*214 FILLER_0_11_293
*215 FILLER_0_11_3
*216 FILLER_0_11_305
*217 FILLER_0_11_317
*218 FILLER_0_11_329
*219 FILLER_0_11_335
*220 FILLER_0_11_337
*221 FILLER_0_11_349
*222 FILLER_0_11_39
*223 FILLER_0_11_51
*224 FILLER_0_11_55
*225 FILLER_0_11_57
*226 FILLER_0_11_69
*227 FILLER_0_11_81
*228 FILLER_0_11_93
*229 FILLER_0_12_109
*230 FILLER_0_12_121
*231 FILLER_0_12_133
*232 FILLER_0_12_139
*233 FILLER_0_12_141
*234 FILLER_0_12_15
*235 FILLER_0_12_153
*236 FILLER_0_12_165
*237 FILLER_0_12_177
*238 FILLER_0_12_189
*239 FILLER_0_12_195
*240 FILLER_0_12_197
*241 FILLER_0_12_209
*242 FILLER_0_12_221
*243 FILLER_0_12_233
*244 FILLER_0_12_245
*245 FILLER_0_12_251
*246 FILLER_0_12_253
*247 FILLER_0_12_265
*248 FILLER_0_12_27
*249 FILLER_0_12_277
*250 FILLER_0_12_289
*251 FILLER_0_12_29
*252 FILLER_0_12_3
*253 FILLER_0_12_301
*254 FILLER_0_12_307
*255 FILLER_0_12_309
*256 FILLER_0_12_321
*257 FILLER_0_12_333
*258 FILLER_0_12_345
*259 FILLER_0_12_41
*260 FILLER_0_12_53
*261 FILLER_0_12_65
*262 FILLER_0_12_77
*263 FILLER_0_12_83
*264 FILLER_0_12_85
*265 FILLER_0_12_97
*266 FILLER_0_13_105
*267 FILLER_0_13_111
*268 FILLER_0_13_113
*269 FILLER_0_13_125
*270 FILLER_0_13_137
*271 FILLER_0_13_149
*272 FILLER_0_13_15
*273 FILLER_0_13_161
*274 FILLER_0_13_167
*275 FILLER_0_13_169
*276 FILLER_0_13_181
*277 FILLER_0_13_193
*278 FILLER_0_13_205
*279 FILLER_0_13_217
*280 FILLER_0_13_223
*281 FILLER_0_13_225
*282 FILLER_0_13_237
*283 FILLER_0_13_249
*284 FILLER_0_13_261
*285 FILLER_0_13_27
*286 FILLER_0_13_273
*287 FILLER_0_13_279
*288 FILLER_0_13_281
*289 FILLER_0_13_293
*290 FILLER_0_13_3
*291 FILLER_0_13_305
*292 FILLER_0_13_317
*293 FILLER_0_13_329
*294 FILLER_0_13_335
*295 FILLER_0_13_337
*296 FILLER_0_13_349
*297 FILLER_0_13_39
*298 FILLER_0_13_51
*299 FILLER_0_13_55
*300 FILLER_0_13_57
*301 FILLER_0_13_69
*302 FILLER_0_13_81
*303 FILLER_0_13_93
*304 FILLER_0_14_109
*305 FILLER_0_14_121
*306 FILLER_0_14_133
*307 FILLER_0_14_139
*308 FILLER_0_14_141
*309 FILLER_0_14_15
*310 FILLER_0_14_153
*311 FILLER_0_14_165
*312 FILLER_0_14_177
*313 FILLER_0_14_189
*314 FILLER_0_14_195
*315 FILLER_0_14_197
*316 FILLER_0_14_209
*317 FILLER_0_14_221
*318 FILLER_0_14_233
*319 FILLER_0_14_245
*320 FILLER_0_14_251
*321 FILLER_0_14_253
*322 FILLER_0_14_265
*323 FILLER_0_14_27
*324 FILLER_0_14_277
*325 FILLER_0_14_289
*326 FILLER_0_14_29
*327 FILLER_0_14_3
*328 FILLER_0_14_301
*329 FILLER_0_14_307
*330 FILLER_0_14_309
*331 FILLER_0_14_321
*332 FILLER_0_14_333
*333 FILLER_0_14_345
*334 FILLER_0_14_41
*335 FILLER_0_14_53
*336 FILLER_0_14_65
*337 FILLER_0_14_77
*338 FILLER_0_14_83
*339 FILLER_0_14_85
*340 FILLER_0_14_97
*341 FILLER_0_15_105
*342 FILLER_0_15_111
*343 FILLER_0_15_113
*344 FILLER_0_15_125
*345 FILLER_0_15_137
*346 FILLER_0_15_149
*347 FILLER_0_15_15
*348 FILLER_0_15_161
*349 FILLER_0_15_167
*350 FILLER_0_15_169
*351 FILLER_0_15_181
*352 FILLER_0_15_193
*353 FILLER_0_15_205
*354 FILLER_0_15_217
*355 FILLER_0_15_223
*356 FILLER_0_15_225
*357 FILLER_0_15_237
*358 FILLER_0_15_249
*359 FILLER_0_15_261
*360 FILLER_0_15_27
*361 FILLER_0_15_273
*362 FILLER_0_15_279
*363 FILLER_0_15_281
*364 FILLER_0_15_293
*365 FILLER_0_15_3
*366 FILLER_0_15_305
*367 FILLER_0_15_317
*368 FILLER_0_15_329
*369 FILLER_0_15_335
*370 FILLER_0_15_337
*371 FILLER_0_15_349
*372 FILLER_0_15_39
*373 FILLER_0_15_51
*374 FILLER_0_15_55
*375 FILLER_0_15_57
*376 FILLER_0_15_69
*377 FILLER_0_15_81
*378 FILLER_0_15_93
*379 FILLER_0_16_109
*380 FILLER_0_16_121
*381 FILLER_0_16_133
*382 FILLER_0_16_139
*383 FILLER_0_16_141
*384 FILLER_0_16_15
*385 FILLER_0_16_153
*386 FILLER_0_16_165
*387 FILLER_0_16_177
*388 FILLER_0_16_189
*389 FILLER_0_16_195
*390 FILLER_0_16_197
*391 FILLER_0_16_209
*392 FILLER_0_16_221
*393 FILLER_0_16_233
*394 FILLER_0_16_245
*395 FILLER_0_16_251
*396 FILLER_0_16_253
*397 FILLER_0_16_265
*398 FILLER_0_16_27
*399 FILLER_0_16_277
*400 FILLER_0_16_289
*401 FILLER_0_16_29
*402 FILLER_0_16_3
*403 FILLER_0_16_301
*404 FILLER_0_16_307
*405 FILLER_0_16_309
*406 FILLER_0_16_321
*407 FILLER_0_16_333
*408 FILLER_0_16_345
*409 FILLER_0_16_41
*410 FILLER_0_16_53
*411 FILLER_0_16_65
*412 FILLER_0_16_77
*413 FILLER_0_16_83
*414 FILLER_0_16_85
*415 FILLER_0_16_97
*416 FILLER_0_17_105
*417 FILLER_0_17_111
*418 FILLER_0_17_113
*419 FILLER_0_17_125
*420 FILLER_0_17_137
*421 FILLER_0_17_149
*422 FILLER_0_17_15
*423 FILLER_0_17_161
*424 FILLER_0_17_167
*425 FILLER_0_17_169
*426 FILLER_0_17_181
*427 FILLER_0_17_193
*428 FILLER_0_17_205
*429 FILLER_0_17_217
*430 FILLER_0_17_223
*431 FILLER_0_17_225
*432 FILLER_0_17_237
*433 FILLER_0_17_249
*434 FILLER_0_17_261
*435 FILLER_0_17_27
*436 FILLER_0_17_273
*437 FILLER_0_17_279
*438 FILLER_0_17_281
*439 FILLER_0_17_293
*440 FILLER_0_17_3
*441 FILLER_0_17_305
*442 FILLER_0_17_317
*443 FILLER_0_17_329
*444 FILLER_0_17_335
*445 FILLER_0_17_337
*446 FILLER_0_17_349
*447 FILLER_0_17_39
*448 FILLER_0_17_51
*449 FILLER_0_17_55
*450 FILLER_0_17_57
*451 FILLER_0_17_69
*452 FILLER_0_17_81
*453 FILLER_0_17_93
*454 FILLER_0_18_109
*455 FILLER_0_18_121
*456 FILLER_0_18_133
*457 FILLER_0_18_139
*458 FILLER_0_18_141
*459 FILLER_0_18_15
*460 FILLER_0_18_153
*461 FILLER_0_18_165
*462 FILLER_0_18_177
*463 FILLER_0_18_189
*464 FILLER_0_18_195
*465 FILLER_0_18_197
*466 FILLER_0_18_209
*467 FILLER_0_18_221
*468 FILLER_0_18_233
*469 FILLER_0_18_245
*470 FILLER_0_18_251
*471 FILLER_0_18_253
*472 FILLER_0_18_265
*473 FILLER_0_18_27
*474 FILLER_0_18_277
*475 FILLER_0_18_289
*476 FILLER_0_18_29
*477 FILLER_0_18_3
*478 FILLER_0_18_301
*479 FILLER_0_18_307
*480 FILLER_0_18_309
*481 FILLER_0_18_321
*482 FILLER_0_18_333
*483 FILLER_0_18_345
*484 FILLER_0_18_41
*485 FILLER_0_18_53
*486 FILLER_0_18_65
*487 FILLER_0_18_77
*488 FILLER_0_18_83
*489 FILLER_0_18_85
*490 FILLER_0_18_97
*491 FILLER_0_19_105
*492 FILLER_0_19_111
*493 FILLER_0_19_113
*494 FILLER_0_19_125
*495 FILLER_0_19_137
*496 FILLER_0_19_149
*497 FILLER_0_19_15
*498 FILLER_0_19_161
*499 FILLER_0_19_167
*500 FILLER_0_19_169
*501 FILLER_0_19_181
*502 FILLER_0_19_193
*503 FILLER_0_19_205
*504 FILLER_0_19_217
*505 FILLER_0_19_223
*506 FILLER_0_19_225
*507 FILLER_0_19_237
*508 FILLER_0_19_249
*509 FILLER_0_19_261
*510 FILLER_0_19_27
*511 FILLER_0_19_273
*512 FILLER_0_19_279
*513 FILLER_0_19_281
*514 FILLER_0_19_293
*515 FILLER_0_19_3
*516 FILLER_0_19_305
*517 FILLER_0_19_317
*518 FILLER_0_19_329
*519 FILLER_0_19_335
*520 FILLER_0_19_337
*521 FILLER_0_19_349
*522 FILLER_0_19_39
*523 FILLER_0_19_51
*524 FILLER_0_19_55
*525 FILLER_0_19_57
*526 FILLER_0_19_69
*527 FILLER_0_19_81
*528 FILLER_0_19_93
*529 FILLER_0_1_105
*530 FILLER_0_1_111
*531 FILLER_0_1_113
*532 FILLER_0_1_125
*533 FILLER_0_1_137
*534 FILLER_0_1_149
*535 FILLER_0_1_15
*536 FILLER_0_1_161
*537 FILLER_0_1_167
*538 FILLER_0_1_169
*539 FILLER_0_1_181
*540 FILLER_0_1_193
*541 FILLER_0_1_205
*542 FILLER_0_1_217
*543 FILLER_0_1_223
*544 FILLER_0_1_225
*545 FILLER_0_1_237
*546 FILLER_0_1_249
*547 FILLER_0_1_261
*548 FILLER_0_1_27
*549 FILLER_0_1_273
*550 FILLER_0_1_279
*551 FILLER_0_1_281
*552 FILLER_0_1_293
*553 FILLER_0_1_3
*554 FILLER_0_1_305
*555 FILLER_0_1_317
*556 FILLER_0_1_329
*557 FILLER_0_1_335
*558 FILLER_0_1_337
*559 FILLER_0_1_349
*560 FILLER_0_1_39
*561 FILLER_0_1_51
*562 FILLER_0_1_55
*563 FILLER_0_1_57
*564 FILLER_0_1_69
*565 FILLER_0_1_81
*566 FILLER_0_1_93
*567 FILLER_0_20_109
*568 FILLER_0_20_121
*569 FILLER_0_20_133
*570 FILLER_0_20_139
*571 FILLER_0_20_141
*572 FILLER_0_20_15
*573 FILLER_0_20_153
*574 FILLER_0_20_165
*575 FILLER_0_20_177
*576 FILLER_0_20_189
*577 FILLER_0_20_195
*578 FILLER_0_20_197
*579 FILLER_0_20_209
*580 FILLER_0_20_221
*581 FILLER_0_20_233
*582 FILLER_0_20_245
*583 FILLER_0_20_251
*584 FILLER_0_20_253
*585 FILLER_0_20_265
*586 FILLER_0_20_27
*587 FILLER_0_20_277
*588 FILLER_0_20_289
*589 FILLER_0_20_29
*590 FILLER_0_20_3
*591 FILLER_0_20_301
*592 FILLER_0_20_307
*593 FILLER_0_20_309
*594 FILLER_0_20_321
*595 FILLER_0_20_333
*596 FILLER_0_20_345
*597 FILLER_0_20_41
*598 FILLER_0_20_53
*599 FILLER_0_20_65
*600 FILLER_0_20_77
*601 FILLER_0_20_83
*602 FILLER_0_20_85
*603 FILLER_0_20_97
*604 FILLER_0_21_105
*605 FILLER_0_21_111
*606 FILLER_0_21_113
*607 FILLER_0_21_125
*608 FILLER_0_21_137
*609 FILLER_0_21_149
*610 FILLER_0_21_15
*611 FILLER_0_21_161
*612 FILLER_0_21_167
*613 FILLER_0_21_169
*614 FILLER_0_21_181
*615 FILLER_0_21_193
*616 FILLER_0_21_205
*617 FILLER_0_21_217
*618 FILLER_0_21_223
*619 FILLER_0_21_225
*620 FILLER_0_21_237
*621 FILLER_0_21_249
*622 FILLER_0_21_261
*623 FILLER_0_21_27
*624 FILLER_0_21_273
*625 FILLER_0_21_279
*626 FILLER_0_21_281
*627 FILLER_0_21_293
*628 FILLER_0_21_3
*629 FILLER_0_21_305
*630 FILLER_0_21_317
*631 FILLER_0_21_329
*632 FILLER_0_21_335
*633 FILLER_0_21_337
*634 FILLER_0_21_349
*635 FILLER_0_21_39
*636 FILLER_0_21_51
*637 FILLER_0_21_55
*638 FILLER_0_21_57
*639 FILLER_0_21_69
*640 FILLER_0_21_81
*641 FILLER_0_21_93
*642 FILLER_0_22_109
*643 FILLER_0_22_121
*644 FILLER_0_22_133
*645 FILLER_0_22_139
*646 FILLER_0_22_141
*647 FILLER_0_22_15
*648 FILLER_0_22_153
*649 FILLER_0_22_165
*650 FILLER_0_22_177
*651 FILLER_0_22_189
*652 FILLER_0_22_195
*653 FILLER_0_22_197
*654 FILLER_0_22_209
*655 FILLER_0_22_221
*656 FILLER_0_22_233
*657 FILLER_0_22_245
*658 FILLER_0_22_251
*659 FILLER_0_22_253
*660 FILLER_0_22_265
*661 FILLER_0_22_27
*662 FILLER_0_22_277
*663 FILLER_0_22_289
*664 FILLER_0_22_29
*665 FILLER_0_22_3
*666 FILLER_0_22_301
*667 FILLER_0_22_307
*668 FILLER_0_22_309
*669 FILLER_0_22_321
*670 FILLER_0_22_333
*671 FILLER_0_22_345
*672 FILLER_0_22_41
*673 FILLER_0_22_53
*674 FILLER_0_22_65
*675 FILLER_0_22_77
*676 FILLER_0_22_83
*677 FILLER_0_22_85
*678 FILLER_0_22_97
*679 FILLER_0_23_105
*680 FILLER_0_23_111
*681 FILLER_0_23_113
*682 FILLER_0_23_125
*683 FILLER_0_23_137
*684 FILLER_0_23_149
*685 FILLER_0_23_15
*686 FILLER_0_23_161
*687 FILLER_0_23_167
*688 FILLER_0_23_169
*689 FILLER_0_23_181
*690 FILLER_0_23_193
*691 FILLER_0_23_205
*692 FILLER_0_23_217
*693 FILLER_0_23_223
*694 FILLER_0_23_225
*695 FILLER_0_23_237
*696 FILLER_0_23_249
*697 FILLER_0_23_261
*698 FILLER_0_23_27
*699 FILLER_0_23_273
*700 FILLER_0_23_279
*701 FILLER_0_23_281
*702 FILLER_0_23_293
*703 FILLER_0_23_3
*704 FILLER_0_23_305
*705 FILLER_0_23_317
*706 FILLER_0_23_329
*707 FILLER_0_23_335
*708 FILLER_0_23_337
*709 FILLER_0_23_349
*710 FILLER_0_23_39
*711 FILLER_0_23_51
*712 FILLER_0_23_55
*713 FILLER_0_23_57
*714 FILLER_0_23_69
*715 FILLER_0_23_81
*716 FILLER_0_23_93
*717 FILLER_0_24_109
*718 FILLER_0_24_121
*719 FILLER_0_24_133
*720 FILLER_0_24_139
*721 FILLER_0_24_141
*722 FILLER_0_24_15
*723 FILLER_0_24_153
*724 FILLER_0_24_165
*725 FILLER_0_24_177
*726 FILLER_0_24_189
*727 FILLER_0_24_195
*728 FILLER_0_24_197
*729 FILLER_0_24_209
*730 FILLER_0_24_221
*731 FILLER_0_24_233
*732 FILLER_0_24_245
*733 FILLER_0_24_251
*734 FILLER_0_24_253
*735 FILLER_0_24_265
*736 FILLER_0_24_27
*737 FILLER_0_24_277
*738 FILLER_0_24_289
*739 FILLER_0_24_29
*740 FILLER_0_24_3
*741 FILLER_0_24_301
*742 FILLER_0_24_307
*743 FILLER_0_24_309
*744 FILLER_0_24_321
*745 FILLER_0_24_333
*746 FILLER_0_24_345
*747 FILLER_0_24_41
*748 FILLER_0_24_53
*749 FILLER_0_24_65
*750 FILLER_0_24_77
*751 FILLER_0_24_83
*752 FILLER_0_24_85
*753 FILLER_0_24_97
*754 FILLER_0_25_105
*755 FILLER_0_25_111
*756 FILLER_0_25_113
*757 FILLER_0_25_125
*758 FILLER_0_25_137
*759 FILLER_0_25_149
*760 FILLER_0_25_15
*761 FILLER_0_25_161
*762 FILLER_0_25_167
*763 FILLER_0_25_169
*764 FILLER_0_25_181
*765 FILLER_0_25_193
*766 FILLER_0_25_205
*767 FILLER_0_25_217
*768 FILLER_0_25_223
*769 FILLER_0_25_225
*770 FILLER_0_25_237
*771 FILLER_0_25_249
*772 FILLER_0_25_261
*773 FILLER_0_25_27
*774 FILLER_0_25_273
*775 FILLER_0_25_279
*776 FILLER_0_25_281
*777 FILLER_0_25_293
*778 FILLER_0_25_3
*779 FILLER_0_25_305
*780 FILLER_0_25_317
*781 FILLER_0_25_329
*782 FILLER_0_25_335
*783 FILLER_0_25_337
*784 FILLER_0_25_349
*785 FILLER_0_25_39
*786 FILLER_0_25_51
*787 FILLER_0_25_55
*788 FILLER_0_25_57
*789 FILLER_0_25_69
*790 FILLER_0_25_81
*791 FILLER_0_25_93
*792 FILLER_0_26_109
*793 FILLER_0_26_121
*794 FILLER_0_26_133
*795 FILLER_0_26_139
*796 FILLER_0_26_141
*797 FILLER_0_26_15
*798 FILLER_0_26_153
*799 FILLER_0_26_165
*800 FILLER_0_26_177
*801 FILLER_0_26_189
*802 FILLER_0_26_195
*803 FILLER_0_26_197
*804 FILLER_0_26_209
*805 FILLER_0_26_221
*806 FILLER_0_26_233
*807 FILLER_0_26_245
*808 FILLER_0_26_251
*809 FILLER_0_26_253
*810 FILLER_0_26_265
*811 FILLER_0_26_27
*812 FILLER_0_26_277
*813 FILLER_0_26_289
*814 FILLER_0_26_29
*815 FILLER_0_26_3
*816 FILLER_0_26_301
*817 FILLER_0_26_307
*818 FILLER_0_26_309
*819 FILLER_0_26_321
*820 FILLER_0_26_333
*821 FILLER_0_26_345
*822 FILLER_0_26_41
*823 FILLER_0_26_53
*824 FILLER_0_26_65
*825 FILLER_0_26_77
*826 FILLER_0_26_83
*827 FILLER_0_26_85
*828 FILLER_0_26_97
*829 FILLER_0_27_105
*830 FILLER_0_27_111
*831 FILLER_0_27_113
*832 FILLER_0_27_125
*833 FILLER_0_27_137
*834 FILLER_0_27_149
*835 FILLER_0_27_15
*836 FILLER_0_27_161
*837 FILLER_0_27_167
*838 FILLER_0_27_169
*839 FILLER_0_27_181
*840 FILLER_0_27_193
*841 FILLER_0_27_205
*842 FILLER_0_27_217
*843 FILLER_0_27_223
*844 FILLER_0_27_225
*845 FILLER_0_27_237
*846 FILLER_0_27_249
*847 FILLER_0_27_261
*848 FILLER_0_27_27
*849 FILLER_0_27_273
*850 FILLER_0_27_279
*851 FILLER_0_27_281
*852 FILLER_0_27_293
*853 FILLER_0_27_3
*854 FILLER_0_27_305
*855 FILLER_0_27_317
*856 FILLER_0_27_329
*857 FILLER_0_27_335
*858 FILLER_0_27_337
*859 FILLER_0_27_349
*860 FILLER_0_27_39
*861 FILLER_0_27_51
*862 FILLER_0_27_55
*863 FILLER_0_27_57
*864 FILLER_0_27_69
*865 FILLER_0_27_81
*866 FILLER_0_27_93
*867 FILLER_0_28_109
*868 FILLER_0_28_121
*869 FILLER_0_28_133
*870 FILLER_0_28_139
*871 FILLER_0_28_141
*872 FILLER_0_28_15
*873 FILLER_0_28_153
*874 FILLER_0_28_165
*875 FILLER_0_28_177
*876 FILLER_0_28_189
*877 FILLER_0_28_195
*878 FILLER_0_28_197
*879 FILLER_0_28_209
*880 FILLER_0_28_221
*881 FILLER_0_28_233
*882 FILLER_0_28_245
*883 FILLER_0_28_251
*884 FILLER_0_28_253
*885 FILLER_0_28_265
*886 FILLER_0_28_27
*887 FILLER_0_28_277
*888 FILLER_0_28_289
*889 FILLER_0_28_29
*890 FILLER_0_28_3
*891 FILLER_0_28_301
*892 FILLER_0_28_307
*893 FILLER_0_28_309
*894 FILLER_0_28_321
*895 FILLER_0_28_333
*896 FILLER_0_28_345
*897 FILLER_0_28_41
*898 FILLER_0_28_53
*899 FILLER_0_28_65
*900 FILLER_0_28_77
*901 FILLER_0_28_83
*902 FILLER_0_28_85
*903 FILLER_0_28_97
*904 FILLER_0_29_105
*905 FILLER_0_29_111
*906 FILLER_0_29_113
*907 FILLER_0_29_125
*908 FILLER_0_29_137
*909 FILLER_0_29_149
*910 FILLER_0_29_15
*911 FILLER_0_29_161
*912 FILLER_0_29_167
*913 FILLER_0_29_169
*914 FILLER_0_29_181
*915 FILLER_0_29_193
*916 FILLER_0_29_205
*917 FILLER_0_29_217
*918 FILLER_0_29_223
*919 FILLER_0_29_225
*920 FILLER_0_29_237
*921 FILLER_0_29_249
*922 FILLER_0_29_261
*923 FILLER_0_29_27
*924 FILLER_0_29_273
*925 FILLER_0_29_279
*926 FILLER_0_29_281
*927 FILLER_0_29_293
*928 FILLER_0_29_3
*929 FILLER_0_29_305
*930 FILLER_0_29_317
*931 FILLER_0_29_329
*932 FILLER_0_29_335
*933 FILLER_0_29_337
*934 FILLER_0_29_349
*935 FILLER_0_29_39
*936 FILLER_0_29_51
*937 FILLER_0_29_55
*938 FILLER_0_29_57
*939 FILLER_0_29_69
*940 FILLER_0_29_81
*941 FILLER_0_29_93
*942 FILLER_0_2_109
*943 FILLER_0_2_121
*944 FILLER_0_2_133
*945 FILLER_0_2_139
*946 FILLER_0_2_141
*947 FILLER_0_2_15
*948 FILLER_0_2_153
*949 FILLER_0_2_165
*950 FILLER_0_2_177
*951 FILLER_0_2_189
*952 FILLER_0_2_195
*953 FILLER_0_2_197
*954 FILLER_0_2_209
*955 FILLER_0_2_221
*956 FILLER_0_2_233
*957 FILLER_0_2_245
*958 FILLER_0_2_251
*959 FILLER_0_2_253
*960 FILLER_0_2_265
*961 FILLER_0_2_27
*962 FILLER_0_2_277
*963 FILLER_0_2_289
*964 FILLER_0_2_29
*965 FILLER_0_2_3
*966 FILLER_0_2_301
*967 FILLER_0_2_307
*968 FILLER_0_2_309
*969 FILLER_0_2_321
*970 FILLER_0_2_333
*971 FILLER_0_2_345
*972 FILLER_0_2_41
*973 FILLER_0_2_53
*974 FILLER_0_2_65
*975 FILLER_0_2_77
*976 FILLER_0_2_83
*977 FILLER_0_2_85
*978 FILLER_0_2_97
*979 FILLER_0_30_109
*980 FILLER_0_30_121
*981 FILLER_0_30_133
*982 FILLER_0_30_139
*983 FILLER_0_30_141
*984 FILLER_0_30_15
*985 FILLER_0_30_153
*986 FILLER_0_30_165
*987 FILLER_0_30_177
*988 FILLER_0_30_189
*989 FILLER_0_30_195
*990 FILLER_0_30_197
*991 FILLER_0_30_209
*992 FILLER_0_30_221
*993 FILLER_0_30_233
*994 FILLER_0_30_245
*995 FILLER_0_30_251
*996 FILLER_0_30_253
*997 FILLER_0_30_265
*998 FILLER_0_30_27
*999 FILLER_0_30_277
*1000 FILLER_0_30_289
*1001 FILLER_0_30_29
*1002 FILLER_0_30_3
*1003 FILLER_0_30_301
*1004 FILLER_0_30_307
*1005 FILLER_0_30_309
*1006 FILLER_0_30_321
*1007 FILLER_0_30_333
*1008 FILLER_0_30_345
*1009 FILLER_0_30_41
*1010 FILLER_0_30_53
*1011 FILLER_0_30_65
*1012 FILLER_0_30_77
*1013 FILLER_0_30_83
*1014 FILLER_0_30_85
*1015 FILLER_0_30_97
*1016 FILLER_0_31_105
*1017 FILLER_0_31_111
*1018 FILLER_0_31_113
*1019 FILLER_0_31_125
*1020 FILLER_0_31_137
*1021 FILLER_0_31_149
*1022 FILLER_0_31_15
*1023 FILLER_0_31_161
*1024 FILLER_0_31_167
*1025 FILLER_0_31_169
*1026 FILLER_0_31_181
*1027 FILLER_0_31_193
*1028 FILLER_0_31_205
*1029 FILLER_0_31_217
*1030 FILLER_0_31_223
*1031 FILLER_0_31_225
*1032 FILLER_0_31_237
*1033 FILLER_0_31_249
*1034 FILLER_0_31_261
*1035 FILLER_0_31_27
*1036 FILLER_0_31_273
*1037 FILLER_0_31_279
*1038 FILLER_0_31_281
*1039 FILLER_0_31_293
*1040 FILLER_0_31_3
*1041 FILLER_0_31_305
*1042 FILLER_0_31_317
*1043 FILLER_0_31_329
*1044 FILLER_0_31_335
*1045 FILLER_0_31_337
*1046 FILLER_0_31_349
*1047 FILLER_0_31_39
*1048 FILLER_0_31_51
*1049 FILLER_0_31_55
*1050 FILLER_0_31_57
*1051 FILLER_0_31_69
*1052 FILLER_0_31_81
*1053 FILLER_0_31_93
*1054 FILLER_0_32_109
*1055 FILLER_0_32_121
*1056 FILLER_0_32_133
*1057 FILLER_0_32_139
*1058 FILLER_0_32_141
*1059 FILLER_0_32_15
*1060 FILLER_0_32_153
*1061 FILLER_0_32_165
*1062 FILLER_0_32_177
*1063 FILLER_0_32_189
*1064 FILLER_0_32_195
*1065 FILLER_0_32_197
*1066 FILLER_0_32_209
*1067 FILLER_0_32_221
*1068 FILLER_0_32_233
*1069 FILLER_0_32_245
*1070 FILLER_0_32_251
*1071 FILLER_0_32_253
*1072 FILLER_0_32_265
*1073 FILLER_0_32_27
*1074 FILLER_0_32_277
*1075 FILLER_0_32_289
*1076 FILLER_0_32_29
*1077 FILLER_0_32_3
*1078 FILLER_0_32_301
*1079 FILLER_0_32_307
*1080 FILLER_0_32_329
*1081 FILLER_0_32_341
*1082 FILLER_0_32_349
*1083 FILLER_0_32_41
*1084 FILLER_0_32_53
*1085 FILLER_0_32_65
*1086 FILLER_0_32_77
*1087 FILLER_0_32_83
*1088 FILLER_0_32_85
*1089 FILLER_0_32_97
*1090 FILLER_0_33_105
*1091 FILLER_0_33_111
*1092 FILLER_0_33_113
*1093 FILLER_0_33_125
*1094 FILLER_0_33_137
*1095 FILLER_0_33_149
*1096 FILLER_0_33_15
*1097 FILLER_0_33_166
*1098 FILLER_0_33_169
*1099 FILLER_0_33_182
*1100 FILLER_0_33_194
*1101 FILLER_0_33_206
*1102 FILLER_0_33_218
*1103 FILLER_0_33_223
*1104 FILLER_0_33_225
*1105 FILLER_0_33_237
*1106 FILLER_0_33_249
*1107 FILLER_0_33_261
*1108 FILLER_0_33_27
*1109 FILLER_0_33_273
*1110 FILLER_0_33_279
*1111 FILLER_0_33_281
*1112 FILLER_0_33_293
*1113 FILLER_0_33_3
*1114 FILLER_0_33_305
*1115 FILLER_0_33_317
*1116 FILLER_0_33_329
*1117 FILLER_0_33_335
*1118 FILLER_0_33_337
*1119 FILLER_0_33_349
*1120 FILLER_0_33_39
*1121 FILLER_0_33_51
*1122 FILLER_0_33_55
*1123 FILLER_0_33_57
*1124 FILLER_0_33_69
*1125 FILLER_0_33_81
*1126 FILLER_0_33_93
*1127 FILLER_0_34_109
*1128 FILLER_0_34_121
*1129 FILLER_0_34_133
*1130 FILLER_0_34_15
*1131 FILLER_0_34_150
*1132 FILLER_0_34_167
*1133 FILLER_0_34_179
*1134 FILLER_0_34_189
*1135 FILLER_0_34_195
*1136 FILLER_0_34_234
*1137 FILLER_0_34_249
*1138 FILLER_0_34_253
*1139 FILLER_0_34_265
*1140 FILLER_0_34_27
*1141 FILLER_0_34_277
*1142 FILLER_0_34_289
*1143 FILLER_0_34_29
*1144 FILLER_0_34_3
*1145 FILLER_0_34_301
*1146 FILLER_0_34_307
*1147 FILLER_0_34_309
*1148 FILLER_0_34_321
*1149 FILLER_0_34_333
*1150 FILLER_0_34_345
*1151 FILLER_0_34_41
*1152 FILLER_0_34_53
*1153 FILLER_0_34_65
*1154 FILLER_0_34_77
*1155 FILLER_0_34_83
*1156 FILLER_0_34_85
*1157 FILLER_0_34_97
*1158 FILLER_0_35_105
*1159 FILLER_0_35_111
*1160 FILLER_0_35_113
*1161 FILLER_0_35_125
*1162 FILLER_0_35_133
*1163 FILLER_0_35_145
*1164 FILLER_0_35_15
*1165 FILLER_0_35_153
*1166 FILLER_0_35_163
*1167 FILLER_0_35_167
*1168 FILLER_0_35_169
*1169 FILLER_0_35_192
*1170 FILLER_0_35_204
*1171 FILLER_0_35_210
*1172 FILLER_0_35_222
*1173 FILLER_0_35_232
*1174 FILLER_0_35_236
*1175 FILLER_0_35_243
*1176 FILLER_0_35_253
*1177 FILLER_0_35_265
*1178 FILLER_0_35_27
*1179 FILLER_0_35_277
*1180 FILLER_0_35_281
*1181 FILLER_0_35_293
*1182 FILLER_0_35_3
*1183 FILLER_0_35_305
*1184 FILLER_0_35_317
*1185 FILLER_0_35_329
*1186 FILLER_0_35_335
*1187 FILLER_0_35_337
*1188 FILLER_0_35_349
*1189 FILLER_0_35_39
*1190 FILLER_0_35_51
*1191 FILLER_0_35_55
*1192 FILLER_0_35_57
*1193 FILLER_0_35_69
*1194 FILLER_0_35_81
*1195 FILLER_0_35_93
*1196 FILLER_0_36_109
*1197 FILLER_0_36_121
*1198 FILLER_0_36_133
*1199 FILLER_0_36_15
*1200 FILLER_0_36_153
*1201 FILLER_0_36_171
*1202 FILLER_0_36_183
*1203 FILLER_0_36_187
*1204 FILLER_0_36_195
*1205 FILLER_0_36_197
*1206 FILLER_0_36_212
*1207 FILLER_0_36_221
*1208 FILLER_0_36_231
*1209 FILLER_0_36_239
*1210 FILLER_0_36_263
*1211 FILLER_0_36_27
*1212 FILLER_0_36_283
*1213 FILLER_0_36_29
*1214 FILLER_0_36_3
*1215 FILLER_0_36_302
*1216 FILLER_0_36_325
*1217 FILLER_0_36_337
*1218 FILLER_0_36_349
*1219 FILLER_0_36_41
*1220 FILLER_0_36_53
*1221 FILLER_0_36_65
*1222 FILLER_0_36_77
*1223 FILLER_0_36_83
*1224 FILLER_0_36_85
*1225 FILLER_0_36_97
*1226 FILLER_0_37_105
*1227 FILLER_0_37_111
*1228 FILLER_0_37_113
*1229 FILLER_0_37_126
*1230 FILLER_0_37_146
*1231 FILLER_0_37_15
*1232 FILLER_0_37_154
*1233 FILLER_0_37_167
*1234 FILLER_0_37_174
*1235 FILLER_0_37_193
*1236 FILLER_0_37_203
*1237 FILLER_0_37_215
*1238 FILLER_0_37_223
*1239 FILLER_0_37_225
*1240 FILLER_0_37_229
*1241 FILLER_0_37_244
*1242 FILLER_0_37_27
*1243 FILLER_0_37_271
*1244 FILLER_0_37_278
*1245 FILLER_0_37_3
*1246 FILLER_0_37_324
*1247 FILLER_0_37_337
*1248 FILLER_0_37_349
*1249 FILLER_0_37_39
*1250 FILLER_0_37_51
*1251 FILLER_0_37_55
*1252 FILLER_0_37_57
*1253 FILLER_0_37_69
*1254 FILLER_0_37_81
*1255 FILLER_0_37_93
*1256 FILLER_0_38_102
*1257 FILLER_0_38_106
*1258 FILLER_0_38_110
*1259 FILLER_0_38_113
*1260 FILLER_0_38_118
*1261 FILLER_0_38_122
*1262 FILLER_0_38_126
*1263 FILLER_0_38_130
*1264 FILLER_0_38_14
*1265 FILLER_0_38_155
*1266 FILLER_0_38_166
*1267 FILLER_0_38_169
*1268 FILLER_0_38_178
*1269 FILLER_0_38_18
*1270 FILLER_0_38_190
*1271 FILLER_0_38_197
*1272 FILLER_0_38_207
*1273 FILLER_0_38_22
*1274 FILLER_0_38_238
*1275 FILLER_0_38_242
*1276 FILLER_0_38_250
*1277 FILLER_0_38_259
*1278 FILLER_0_38_278
*1279 FILLER_0_38_3
*1280 FILLER_0_38_304
*1281 FILLER_0_38_32
*1282 FILLER_0_38_325
*1283 FILLER_0_38_333
*1284 FILLER_0_38_337
*1285 FILLER_0_38_349
*1286 FILLER_0_38_38
*1287 FILLER_0_38_42
*1288 FILLER_0_38_46
*1289 FILLER_0_38_50
*1290 FILLER_0_38_54
*1291 FILLER_0_38_57
*1292 FILLER_0_38_62
*1293 FILLER_0_38_66
*1294 FILLER_0_38_70
*1295 FILLER_0_38_74
*1296 FILLER_0_38_78
*1297 FILLER_0_38_88
*1298 FILLER_0_38_94
*1299 FILLER_0_38_98
*1300 FILLER_0_3_105
*1301 FILLER_0_3_111
*1302 FILLER_0_3_113
*1303 FILLER_0_3_125
*1304 FILLER_0_3_137
*1305 FILLER_0_3_149
*1306 FILLER_0_3_15
*1307 FILLER_0_3_161
*1308 FILLER_0_3_167
*1309 FILLER_0_3_169
*1310 FILLER_0_3_181
*1311 FILLER_0_3_193
*1312 FILLER_0_3_205
*1313 FILLER_0_3_217
*1314 FILLER_0_3_223
*1315 FILLER_0_3_225
*1316 FILLER_0_3_237
*1317 FILLER_0_3_249
*1318 FILLER_0_3_261
*1319 FILLER_0_3_27
*1320 FILLER_0_3_273
*1321 FILLER_0_3_279
*1322 FILLER_0_3_281
*1323 FILLER_0_3_293
*1324 FILLER_0_3_3
*1325 FILLER_0_3_305
*1326 FILLER_0_3_317
*1327 FILLER_0_3_329
*1328 FILLER_0_3_335
*1329 FILLER_0_3_337
*1330 FILLER_0_3_349
*1331 FILLER_0_3_39
*1332 FILLER_0_3_51
*1333 FILLER_0_3_55
*1334 FILLER_0_3_57
*1335 FILLER_0_3_69
*1336 FILLER_0_3_81
*1337 FILLER_0_3_93
*1338 FILLER_0_4_109
*1339 FILLER_0_4_121
*1340 FILLER_0_4_133
*1341 FILLER_0_4_139
*1342 FILLER_0_4_141
*1343 FILLER_0_4_15
*1344 FILLER_0_4_153
*1345 FILLER_0_4_165
*1346 FILLER_0_4_177
*1347 FILLER_0_4_189
*1348 FILLER_0_4_195
*1349 FILLER_0_4_197
*1350 FILLER_0_4_209
*1351 FILLER_0_4_221
*1352 FILLER_0_4_233
*1353 FILLER_0_4_245
*1354 FILLER_0_4_251
*1355 FILLER_0_4_253
*1356 FILLER_0_4_265
*1357 FILLER_0_4_27
*1358 FILLER_0_4_277
*1359 FILLER_0_4_289
*1360 FILLER_0_4_29
*1361 FILLER_0_4_3
*1362 FILLER_0_4_301
*1363 FILLER_0_4_307
*1364 FILLER_0_4_309
*1365 FILLER_0_4_321
*1366 FILLER_0_4_333
*1367 FILLER_0_4_345
*1368 FILLER_0_4_41
*1369 FILLER_0_4_53
*1370 FILLER_0_4_65
*1371 FILLER_0_4_77
*1372 FILLER_0_4_83
*1373 FILLER_0_4_85
*1374 FILLER_0_4_97
*1375 FILLER_0_5_105
*1376 FILLER_0_5_111
*1377 FILLER_0_5_113
*1378 FILLER_0_5_125
*1379 FILLER_0_5_137
*1380 FILLER_0_5_149
*1381 FILLER_0_5_15
*1382 FILLER_0_5_161
*1383 FILLER_0_5_167
*1384 FILLER_0_5_169
*1385 FILLER_0_5_181
*1386 FILLER_0_5_193
*1387 FILLER_0_5_205
*1388 FILLER_0_5_217
*1389 FILLER_0_5_223
*1390 FILLER_0_5_225
*1391 FILLER_0_5_237
*1392 FILLER_0_5_249
*1393 FILLER_0_5_261
*1394 FILLER_0_5_27
*1395 FILLER_0_5_273
*1396 FILLER_0_5_279
*1397 FILLER_0_5_281
*1398 FILLER_0_5_293
*1399 FILLER_0_5_3
*1400 FILLER_0_5_305
*1401 FILLER_0_5_317
*1402 FILLER_0_5_329
*1403 FILLER_0_5_335
*1404 FILLER_0_5_337
*1405 FILLER_0_5_349
*1406 FILLER_0_5_39
*1407 FILLER_0_5_51
*1408 FILLER_0_5_55
*1409 FILLER_0_5_57
*1410 FILLER_0_5_69
*1411 FILLER_0_5_81
*1412 FILLER_0_5_93
*1413 FILLER_0_6_109
*1414 FILLER_0_6_121
*1415 FILLER_0_6_133
*1416 FILLER_0_6_139
*1417 FILLER_0_6_141
*1418 FILLER_0_6_15
*1419 FILLER_0_6_153
*1420 FILLER_0_6_165
*1421 FILLER_0_6_177
*1422 FILLER_0_6_189
*1423 FILLER_0_6_195
*1424 FILLER_0_6_197
*1425 FILLER_0_6_209
*1426 FILLER_0_6_221
*1427 FILLER_0_6_233
*1428 FILLER_0_6_245
*1429 FILLER_0_6_251
*1430 FILLER_0_6_253
*1431 FILLER_0_6_265
*1432 FILLER_0_6_27
*1433 FILLER_0_6_277
*1434 FILLER_0_6_289
*1435 FILLER_0_6_29
*1436 FILLER_0_6_3
*1437 FILLER_0_6_301
*1438 FILLER_0_6_307
*1439 FILLER_0_6_309
*1440 FILLER_0_6_321
*1441 FILLER_0_6_333
*1442 FILLER_0_6_345
*1443 FILLER_0_6_41
*1444 FILLER_0_6_53
*1445 FILLER_0_6_65
*1446 FILLER_0_6_77
*1447 FILLER_0_6_83
*1448 FILLER_0_6_85
*1449 FILLER_0_6_97
*1450 FILLER_0_7_105
*1451 FILLER_0_7_111
*1452 FILLER_0_7_113
*1453 FILLER_0_7_125
*1454 FILLER_0_7_137
*1455 FILLER_0_7_149
*1456 FILLER_0_7_15
*1457 FILLER_0_7_161
*1458 FILLER_0_7_167
*1459 FILLER_0_7_169
*1460 FILLER_0_7_181
*1461 FILLER_0_7_193
*1462 FILLER_0_7_205
*1463 FILLER_0_7_217
*1464 FILLER_0_7_223
*1465 FILLER_0_7_225
*1466 FILLER_0_7_237
*1467 FILLER_0_7_249
*1468 FILLER_0_7_261
*1469 FILLER_0_7_27
*1470 FILLER_0_7_273
*1471 FILLER_0_7_279
*1472 FILLER_0_7_281
*1473 FILLER_0_7_293
*1474 FILLER_0_7_3
*1475 FILLER_0_7_305