*SPEF "ieee 1481-1999"
*DESIGN "tt_um_wokwi_370709383347782657"
*DATE "11:11:11 Fri 11 11, 1111"
*VENDOR "OpenRCX"
*PROGRAM "Parallel Extraction"
*VERSION "1.0"
*DESIGN_FLOW "NAME_SCOPE LOCAL" "PIN_CAP NONE"
*DIVIDER /
*DELIMITER :
*BUS_DELIMITER []
*T_UNIT 1 NS
*C_UNIT 1 PF
*R_UNIT 1 OHM
*L_UNIT 1 HENRY

*NAME_MAP
*3 clk
*4 ena
*5 rst_n
*6 ui_in[0]
*7 ui_in[1]
*8 ui_in[2]
*9 ui_in[3]
*10 ui_in[4]
*11 ui_in[5]
*12 ui_in[6]
*13 ui_in[7]
*14 uio_in[0]
*15 uio_in[1]
*16 uio_in[2]
*17 uio_in[3]
*18 uio_in[4]
*19 uio_in[5]
*20 uio_in[6]
*21 uio_in[7]
*22 net1
*23 net2
*24 net3
*25 net4
*26 net5
*27 net6
*28 net7
*29 net8
*30 net9
*31 net10
*32 net11
*33 net12
*34 net13
*35 net14
*36 net15
*37 net16
*38 uo_out[0]
*39 uo_out[1]
*40 uo_out[2]
*41 net17
*42 net18
*43 net19
*44 net20
*45 net21
*46 _00_
*47 and1\.a
*48 and1\.b
*49 and1\.out
*50 clknet_0_clk
*51 clknet_1_0__leaf_clk
*52 clknet_1_1__leaf_clk
*53 flop1\.d
*54 flop1\.notq
*55 flop2\.q
*56 net22
*57 net23
*58 FILLER_0_0_109
*59 FILLER_0_0_113
*60 FILLER_0_0_125
*61 FILLER_0_0_137
*62 FILLER_0_0_141
*63 FILLER_0_0_15
*64 FILLER_0_0_153
*65 FILLER_0_0_165
*66 FILLER_0_0_169
*67 FILLER_0_0_181
*68 FILLER_0_0_193
*69 FILLER_0_0_197
*70 FILLER_0_0_209
*71 FILLER_0_0_221
*72 FILLER_0_0_225
*73 FILLER_0_0_237
*74 FILLER_0_0_249
*75 FILLER_0_0_253
*76 FILLER_0_0_265
*77 FILLER_0_0_27
*78 FILLER_0_0_277
*79 FILLER_0_0_281
*80 FILLER_0_0_29
*81 FILLER_0_0_293
*82 FILLER_0_0_3
*83 FILLER_0_0_305
*84 FILLER_0_0_309
*85 FILLER_0_0_321
*86 FILLER_0_0_333
*87 FILLER_0_0_337
*88 FILLER_0_0_349
*89 FILLER_0_0_41
*90 FILLER_0_0_53
*91 FILLER_0_0_57
*92 FILLER_0_0_69
*93 FILLER_0_0_81
*94 FILLER_0_0_85
*95 FILLER_0_0_97
*96 FILLER_0_10_109
*97 FILLER_0_10_121
*98 FILLER_0_10_133
*99 FILLER_0_10_139
*100 FILLER_0_10_141
*101 FILLER_0_10_15
*102 FILLER_0_10_153
*103 FILLER_0_10_165
*104 FILLER_0_10_177
*105 FILLER_0_10_189
*106 FILLER_0_10_195
*107 FILLER_0_10_197
*108 FILLER_0_10_209
*109 FILLER_0_10_221
*110 FILLER_0_10_233
*111 FILLER_0_10_245
*112 FILLER_0_10_251
*113 FILLER_0_10_253
*114 FILLER_0_10_265
*115 FILLER_0_10_27
*116 FILLER_0_10_277
*117 FILLER_0_10_289
*118 FILLER_0_10_29
*119 FILLER_0_10_3
*120 FILLER_0_10_301
*121 FILLER_0_10_307
*122 FILLER_0_10_309
*123 FILLER_0_10_321
*124 FILLER_0_10_333
*125 FILLER_0_10_345
*126 FILLER_0_10_41
*127 FILLER_0_10_53
*128 FILLER_0_10_65
*129 FILLER_0_10_77
*130 FILLER_0_10_83
*131 FILLER_0_10_85
*132 FILLER_0_10_97
*133 FILLER_0_11_105
*134 FILLER_0_11_111
*135 FILLER_0_11_113
*136 FILLER_0_11_125
*137 FILLER_0_11_137
*138 FILLER_0_11_149
*139 FILLER_0_11_15
*140 FILLER_0_11_161
*141 FILLER_0_11_167
*142 FILLER_0_11_169
*143 FILLER_0_11_181
*144 FILLER_0_11_193
*145 FILLER_0_11_205
*146 FILLER_0_11_217
*147 FILLER_0_11_223
*148 FILLER_0_11_225
*149 FILLER_0_11_237
*150 FILLER_0_11_249
*151 FILLER_0_11_261
*152 FILLER_0_11_27
*153 FILLER_0_11_273
*154 FILLER_0_11_279
*155 FILLER_0_11_281
*156 FILLER_0_11_293
*157 FILLER_0_11_3
*158 FILLER_0_11_305
*159 FILLER_0_11_317
*160 FILLER_0_11_329
*161 FILLER_0_11_335
*162 FILLER_0_11_337
*163 FILLER_0_11_349
*164 FILLER_0_11_39
*165 FILLER_0_11_51
*166 FILLER_0_11_55
*167 FILLER_0_11_57
*168 FILLER_0_11_69
*169 FILLER_0_11_81
*170 FILLER_0_11_93
*171 FILLER_0_12_109
*172 FILLER_0_12_121
*173 FILLER_0_12_133
*174 FILLER_0_12_139
*175 FILLER_0_12_141
*176 FILLER_0_12_15
*177 FILLER_0_12_153
*178 FILLER_0_12_165
*179 FILLER_0_12_177
*180 FILLER_0_12_189
*181 FILLER_0_12_195
*182 FILLER_0_12_197
*183 FILLER_0_12_209
*184 FILLER_0_12_221
*185 FILLER_0_12_233
*186 FILLER_0_12_245
*187 FILLER_0_12_251
*188 FILLER_0_12_253
*189 FILLER_0_12_265
*190 FILLER_0_12_27
*191 FILLER_0_12_277
*192 FILLER_0_12_289
*193 FILLER_0_12_29
*194 FILLER_0_12_3
*195 FILLER_0_12_301
*196 FILLER_0_12_307
*197 FILLER_0_12_309
*198 FILLER_0_12_321
*199 FILLER_0_12_333
*200 FILLER_0_12_345
*201 FILLER_0_12_41
*202 FILLER_0_12_53
*203 FILLER_0_12_65
*204 FILLER_0_12_77
*205 FILLER_0_12_83
*206 FILLER_0_12_85
*207 FILLER_0_12_97
*208 FILLER_0_13_105
*209 FILLER_0_13_111
*210 FILLER_0_13_113
*211 FILLER_0_13_125
*212 FILLER_0_13_137
*213 FILLER_0_13_149
*214 FILLER_0_13_15
*215 FILLER_0_13_161
*216 FILLER_0_13_167
*217 FILLER_0_13_169
*218 FILLER_0_13_181
*219 FILLER_0_13_193
*220 FILLER_0_13_205
*221 FILLER_0_13_217
*222 FILLER_0_13_223
*223 FILLER_0_13_225
*224 FILLER_0_13_237
*225 FILLER_0_13_249
*226 FILLER_0_13_261
*227 FILLER_0_13_27
*228 FILLER_0_13_273
*229 FILLER_0_13_279
*230 FILLER_0_13_281
*231 FILLER_0_13_293
*232 FILLER_0_13_3
*233 FILLER_0_13_305
*234 FILLER_0_13_317
*235 FILLER_0_13_329
*236 FILLER_0_13_335
*237 FILLER_0_13_337
*238 FILLER_0_13_349
*239 FILLER_0_13_39
*240 FILLER_0_13_51
*241 FILLER_0_13_55
*242 FILLER_0_13_57
*243 FILLER_0_13_69
*244 FILLER_0_13_81
*245 FILLER_0_13_93
*246 FILLER_0_14_109
*247 FILLER_0_14_121
*248 FILLER_0_14_133
*249 FILLER_0_14_139
*250 FILLER_0_14_141
*251 FILLER_0_14_15
*252 FILLER_0_14_153
*253 FILLER_0_14_165
*254 FILLER_0_14_177
*255 FILLER_0_14_189
*256 FILLER_0_14_195
*257 FILLER_0_14_197
*258 FILLER_0_14_209
*259 FILLER_0_14_221
*260 FILLER_0_14_233
*261 FILLER_0_14_245
*262 FILLER_0_14_251
*263 FILLER_0_14_253
*264 FILLER_0_14_265
*265 FILLER_0_14_27
*266 FILLER_0_14_277
*267 FILLER_0_14_289
*268 FILLER_0_14_29
*269 FILLER_0_14_3
*270 FILLER_0_14_301
*271 FILLER_0_14_307
*272 FILLER_0_14_309
*273 FILLER_0_14_321
*274 FILLER_0_14_333
*275 FILLER_0_14_345
*276 FILLER_0_14_41
*277 FILLER_0_14_53
*278 FILLER_0_14_65
*279 FILLER_0_14_77
*280 FILLER_0_14_83
*281 FILLER_0_14_85
*282 FILLER_0_14_97
*283 FILLER_0_15_105
*284 FILLER_0_15_111
*285 FILLER_0_15_113
*286 FILLER_0_15_125
*287 FILLER_0_15_137
*288 FILLER_0_15_149
*289 FILLER_0_15_15
*290 FILLER_0_15_161
*291 FILLER_0_15_167
*292 FILLER_0_15_169
*293 FILLER_0_15_181
*294 FILLER_0_15_193
*295 FILLER_0_15_205
*296 FILLER_0_15_217
*297 FILLER_0_15_223
*298 FILLER_0_15_225
*299 FILLER_0_15_237
*300 FILLER_0_15_249
*301 FILLER_0_15_261
*302 FILLER_0_15_27
*303 FILLER_0_15_273
*304 FILLER_0_15_279
*305 FILLER_0_15_281
*306 FILLER_0_15_293
*307 FILLER_0_15_3
*308 FILLER_0_15_305
*309 FILLER_0_15_317
*310 FILLER_0_15_329
*311 FILLER_0_15_335
*312 FILLER_0_15_337
*313 FILLER_0_15_349
*314 FILLER_0_15_39
*315 FILLER_0_15_51
*316 FILLER_0_15_55
*317 FILLER_0_15_57
*318 FILLER_0_15_69
*319 FILLER_0_15_81
*320 FILLER_0_15_93
*321 FILLER_0_16_109
*322 FILLER_0_16_121
*323 FILLER_0_16_133
*324 FILLER_0_16_139
*325 FILLER_0_16_141
*326 FILLER_0_16_15
*327 FILLER_0_16_153
*328 FILLER_0_16_165
*329 FILLER_0_16_177
*330 FILLER_0_16_189
*331 FILLER_0_16_195
*332 FILLER_0_16_197
*333 FILLER_0_16_209
*334 FILLER_0_16_221
*335 FILLER_0_16_233
*336 FILLER_0_16_245
*337 FILLER_0_16_251
*338 FILLER_0_16_253
*339 FILLER_0_16_265
*340 FILLER_0_16_27
*341 FILLER_0_16_277
*342 FILLER_0_16_289
*343 FILLER_0_16_29
*344 FILLER_0_16_3
*345 FILLER_0_16_301
*346 FILLER_0_16_307
*347 FILLER_0_16_309
*348 FILLER_0_16_321
*349 FILLER_0_16_333
*350 FILLER_0_16_345
*351 FILLER_0_16_41
*352 FILLER_0_16_53
*353 FILLER_0_16_65
*354 FILLER_0_16_77
*355 FILLER_0_16_83
*356 FILLER_0_16_85
*357 FILLER_0_16_97
*358 FILLER_0_17_105
*359 FILLER_0_17_111
*360 FILLER_0_17_113
*361 FILLER_0_17_125
*362 FILLER_0_17_137
*363 FILLER_0_17_149
*364 FILLER_0_17_15
*365 FILLER_0_17_161
*366 FILLER_0_17_167
*367 FILLER_0_17_169
*368 FILLER_0_17_181
*369 FILLER_0_17_193
*370 FILLER_0_17_205
*371 FILLER_0_17_217
*372 FILLER_0_17_223
*373 FILLER_0_17_225
*374 FILLER_0_17_237
*375 FILLER_0_17_249
*376 FILLER_0_17_261
*377 FILLER_0_17_27
*378 FILLER_0_17_273
*379 FILLER_0_17_279
*380 FILLER_0_17_281
*381 FILLER_0_17_293
*382 FILLER_0_17_3
*383 FILLER_0_17_305
*384 FILLER_0_17_317
*385 FILLER_0_17_329
*386 FILLER_0_17_335
*387 FILLER_0_17_337
*388 FILLER_0_17_349
*389 FILLER_0_17_39
*390 FILLER_0_17_51
*391 FILLER_0_17_55
*392 FILLER_0_17_57
*393 FILLER_0_17_69
*394 FILLER_0_17_81
*395 FILLER_0_17_93
*396 FILLER_0_18_109
*397 FILLER_0_18_121
*398 FILLER_0_18_133
*399 FILLER_0_18_139
*400 FILLER_0_18_141
*401 FILLER_0_18_15
*402 FILLER_0_18_153
*403 FILLER_0_18_165
*404 FILLER_0_18_177
*405 FILLER_0_18_189
*406 FILLER_0_18_195
*407 FILLER_0_18_197
*408 FILLER_0_18_209
*409 FILLER_0_18_221
*410 FILLER_0_18_233
*411 FILLER_0_18_245
*412 FILLER_0_18_251
*413 FILLER_0_18_253
*414 FILLER_0_18_265
*415 FILLER_0_18_27
*416 FILLER_0_18_277
*417 FILLER_0_18_289
*418 FILLER_0_18_29
*419 FILLER_0_18_3
*420 FILLER_0_18_301
*421 FILLER_0_18_307
*422 FILLER_0_18_309
*423 FILLER_0_18_321
*424 FILLER_0_18_333
*425 FILLER_0_18_345
*426 FILLER_0_18_41
*427 FILLER_0_18_53
*428 FILLER_0_18_65
*429 FILLER_0_18_77
*430 FILLER_0_18_83
*431 FILLER_0_18_85
*432 FILLER_0_18_97
*433 FILLER_0_19_105
*434 FILLER_0_19_111
*435 FILLER_0_19_113
*436 FILLER_0_19_125
*437 FILLER_0_19_137
*438 FILLER_0_19_149
*439 FILLER_0_19_15
*440 FILLER_0_19_161
*441 FILLER_0_19_167
*442 FILLER_0_19_169
*443 FILLER_0_19_181
*444 FILLER_0_19_193
*445 FILLER_0_19_205
*446 FILLER_0_19_217
*447 FILLER_0_19_223
*448 FILLER_0_19_225
*449 FILLER_0_19_237
*450 FILLER_0_19_249
*451 FILLER_0_19_261
*452 FILLER_0_19_27
*453 FILLER_0_19_273
*454 FILLER_0_19_279
*455 FILLER_0_19_281
*456 FILLER_0_19_293
*457 FILLER_0_19_3
*458 FILLER_0_19_305
*459 FILLER_0_19_317
*460 FILLER_0_19_329
*461 FILLER_0_19_335
*462 FILLER_0_19_337
*463 FILLER_0_19_349
*464 FILLER_0_19_39
*465 FILLER_0_19_51
*466 FILLER_0_19_55
*467 FILLER_0_19_57
*468 FILLER_0_19_69
*469 FILLER_0_19_81
*470 FILLER_0_19_93
*471 FILLER_0_1_105
*472 FILLER_0_1_111
*473 FILLER_0_1_113
*474 FILLER_0_1_125
*475 FILLER_0_1_137
*476 FILLER_0_1_149
*477 FILLER_0_1_15
*478 FILLER_0_1_161
*479 FILLER_0_1_167
*480 FILLER_0_1_169
*481 FILLER_0_1_181
*482 FILLER_0_1_193
*483 FILLER_0_1_205
*484 FILLER_0_1_217
*485 FILLER_0_1_223
*486 FILLER_0_1_225
*487 FILLER_0_1_237
*488 FILLER_0_1_249
*489 FILLER_0_1_261
*490 FILLER_0_1_27
*491 FILLER_0_1_273
*492 FILLER_0_1_279
*493 FILLER_0_1_281
*494 FILLER_0_1_293
*495 FILLER_0_1_3
*496 FILLER_0_1_305
*497 FILLER_0_1_317
*498 FILLER_0_1_329
*499 FILLER_0_1_335
*500 FILLER_0_1_337
*501 FILLER_0_1_349
*502 FILLER_0_1_39
*503 FILLER_0_1_51
*504 FILLER_0_1_55
*505 FILLER_0_1_57
*506 FILLER_0_1_69
*507 FILLER_0_1_81
*508 FILLER_0_1_93
*509 FILLER_0_20_109
*510 FILLER_0_20_121
*511 FILLER_0_20_133
*512 FILLER_0_20_139
*513 FILLER_0_20_141
*514 FILLER_0_20_15
*515 FILLER_0_20_153
*516 FILLER_0_20_165
*517 FILLER_0_20_177
*518 FILLER_0_20_189
*519 FILLER_0_20_195
*520 FILLER_0_20_197
*521 FILLER_0_20_209
*522 FILLER_0_20_221
*523 FILLER_0_20_233
*524 FILLER_0_20_245
*525 FILLER_0_20_251
*526 FILLER_0_20_253
*527 FILLER_0_20_265
*528 FILLER_0_20_27
*529 FILLER_0_20_277
*530 FILLER_0_20_289
*531 FILLER_0_20_29
*532 FILLER_0_20_3
*533 FILLER_0_20_301
*534 FILLER_0_20_307
*535 FILLER_0_20_309
*536 FILLER_0_20_321
*537 FILLER_0_20_333
*538 FILLER_0_20_345
*539 FILLER_0_20_41
*540 FILLER_0_20_53
*541 FILLER_0_20_65
*542 FILLER_0_20_77
*543 FILLER_0_20_83
*544 FILLER_0_20_85
*545 FILLER_0_20_97
*546 FILLER_0_21_105
*547 FILLER_0_21_111
*548 FILLER_0_21_113
*549 FILLER_0_21_125
*550 FILLER_0_21_137
*551 FILLER_0_21_149
*552 FILLER_0_21_15
*553 FILLER_0_21_161
*554 FILLER_0_21_167
*555 FILLER_0_21_169
*556 FILLER_0_21_181
*557 FILLER_0_21_193
*558 FILLER_0_21_205
*559 FILLER_0_21_217
*560 FILLER_0_21_223
*561 FILLER_0_21_225
*562 FILLER_0_21_237
*563 FILLER_0_21_249
*564 FILLER_0_21_261
*565 FILLER_0_21_27
*566 FILLER_0_21_273
*567 FILLER_0_21_279
*568 FILLER_0_21_281
*569 FILLER_0_21_293
*570 FILLER_0_21_3
*571 FILLER_0_21_305
*572 FILLER_0_21_317
*573 FILLER_0_21_329
*574 FILLER_0_21_335
*575 FILLER_0_21_337
*576 FILLER_0_21_349
*577 FILLER_0_21_39
*578 FILLER_0_21_51
*579 FILLER_0_21_55
*580 FILLER_0_21_57
*581 FILLER_0_21_69
*582 FILLER_0_21_81
*583 FILLER_0_21_93
*584 FILLER_0_22_109
*585 FILLER_0_22_121
*586 FILLER_0_22_133
*587 FILLER_0_22_139
*588 FILLER_0_22_141
*589 FILLER_0_22_15
*590 FILLER_0_22_153
*591 FILLER_0_22_165
*592 FILLER_0_22_177
*593 FILLER_0_22_189
*594 FILLER_0_22_195
*595 FILLER_0_22_197
*596 FILLER_0_22_209
*597 FILLER_0_22_221
*598 FILLER_0_22_233
*599 FILLER_0_22_245
*600 FILLER_0_22_251
*601 FILLER_0_22_253
*602 FILLER_0_22_265
*603 FILLER_0_22_27
*604 FILLER_0_22_277
*605 FILLER_0_22_289
*606 FILLER_0_22_29
*607 FILLER_0_22_3
*608 FILLER_0_22_301
*609 FILLER_0_22_307
*610 FILLER_0_22_309
*611 FILLER_0_22_321
*612 FILLER_0_22_333
*613 FILLER_0_22_345
*614 FILLER_0_22_41
*615 FILLER_0_22_53
*616 FILLER_0_22_65
*617 FILLER_0_22_77
*618 FILLER_0_22_83
*619 FILLER_0_22_85
*620 FILLER_0_22_97
*621 FILLER_0_23_105
*622 FILLER_0_23_111
*623 FILLER_0_23_113
*624 FILLER_0_23_125
*625 FILLER_0_23_137
*626 FILLER_0_23_149
*627 FILLER_0_23_15
*628 FILLER_0_23_161
*629 FILLER_0_23_167
*630 FILLER_0_23_169
*631 FILLER_0_23_181
*632 FILLER_0_23_193
*633 FILLER_0_23_205
*634 FILLER_0_23_217
*635 FILLER_0_23_223
*636 FILLER_0_23_225
*637 FILLER_0_23_237
*638 FILLER_0_23_249
*639 FILLER_0_23_261
*640 FILLER_0_23_27
*641 FILLER_0_23_273
*642 FILLER_0_23_279
*643 FILLER_0_23_281
*644 FILLER_0_23_293
*645 FILLER_0_23_3
*646 FILLER_0_23_305
*647 FILLER_0_23_317
*648 FILLER_0_23_329
*649 FILLER_0_23_335
*650 FILLER_0_23_337
*651 FILLER_0_23_349
*652 FILLER_0_23_39
*653 FILLER_0_23_51
*654 FILLER_0_23_55
*655 FILLER_0_23_57
*656 FILLER_0_23_69
*657 FILLER_0_23_81
*658 FILLER_0_23_93
*659 FILLER_0_24_109
*660 FILLER_0_24_121
*661 FILLER_0_24_133
*662 FILLER_0_24_139
*663 FILLER_0_24_141
*664 FILLER_0_24_15
*665 FILLER_0_24_153
*666 FILLER_0_24_165
*667 FILLER_0_24_177
*668 FILLER_0_24_189
*669 FILLER_0_24_195
*670 FILLER_0_24_197
*671 FILLER_0_24_209
*672 FILLER_0_24_221
*673 FILLER_0_24_233
*674 FILLER_0_24_245
*675 FILLER_0_24_251
*676 FILLER_0_24_253
*677 FILLER_0_24_265
*678 FILLER_0_24_27
*679 FILLER_0_24_277
*680 FILLER_0_24_289
*681 FILLER_0_24_29
*682 FILLER_0_24_3
*683 FILLER_0_24_301
*684 FILLER_0_24_307
*685 FILLER_0_24_309
*686 FILLER_0_24_321
*687 FILLER_0_24_333
*688 FILLER_0_24_345
*689 FILLER_0_24_41
*690 FILLER_0_24_53
*691 FILLER_0_24_65
*692 FILLER_0_24_77
*693 FILLER_0_24_83
*694 FILLER_0_24_85
*695 FILLER_0_24_97
*696 FILLER_0_25_105
*697 FILLER_0_25_111
*698 FILLER_0_25_113
*699 FILLER_0_25_125
*700 FILLER_0_25_137
*701 FILLER_0_25_149
*702 FILLER_0_25_15
*703 FILLER_0_25_161
*704 FILLER_0_25_167
*705 FILLER_0_25_169
*706 FILLER_0_25_181
*707 FILLER_0_25_193
*708 FILLER_0_25_205
*709 FILLER_0_25_217
*710 FILLER_0_25_223
*711 FILLER_0_25_225
*712 FILLER_0_25_237
*713 FILLER_0_25_249
*714 FILLER_0_25_261
*715 FILLER_0_25_27
*716 FILLER_0_25_273
*717 FILLER_0_25_279
*718 FILLER_0_25_281
*719 FILLER_0_25_293
*720 FILLER_0_25_3
*721 FILLER_0_25_305
*722 FILLER_0_25_317
*723 FILLER_0_25_329
*724 FILLER_0_25_335
*725 FILLER_0_25_337
*726 FILLER_0_25_349
*727 FILLER_0_25_39
*728 FILLER_0_25_51
*729 FILLER_0_25_55
*730 FILLER_0_25_57
*731 FILLER_0_25_69
*732 FILLER_0_25_81
*733 FILLER_0_25_93
*734 FILLER_0_26_109
*735 FILLER_0_26_121
*736 FILLER_0_26_133
*737 FILLER_0_26_139
*738 FILLER_0_26_141
*739 FILLER_0_26_15
*740 FILLER_0_26_153
*741 FILLER_0_26_165
*742 FILLER_0_26_177
*743 FILLER_0_26_189
*744 FILLER_0_26_195
*745 FILLER_0_26_197
*746 FILLER_0_26_209
*747 FILLER_0_26_221
*748 FILLER_0_26_233
*749 FILLER_0_26_245
*750 FILLER_0_26_251
*751 FILLER_0_26_253
*752 FILLER_0_26_265
*753 FILLER_0_26_27
*754 FILLER_0_26_277
*755 FILLER_0_26_289
*756 FILLER_0_26_29
*757 FILLER_0_26_3
*758 FILLER_0_26_301
*759 FILLER_0_26_307
*760 FILLER_0_26_309
*761 FILLER_0_26_321
*762 FILLER_0_26_333
*763 FILLER_0_26_345
*764 FILLER_0_26_41
*765 FILLER_0_26_53
*766 FILLER_0_26_65
*767 FILLER_0_26_77
*768 FILLER_0_26_83
*769 FILLER_0_26_85
*770 FILLER_0_26_97
*771 FILLER_0_27_105
*772 FILLER_0_27_111
*773 FILLER_0_27_113
*774 FILLER_0_27_125
*775 FILLER_0_27_137
*776 FILLER_0_27_149
*777 FILLER_0_27_15
*778 FILLER_0_27_161
*779 FILLER_0_27_167
*780 FILLER_0_27_169
*781 FILLER_0_27_181
*782 FILLER_0_27_193
*783 FILLER_0_27_205
*784 FILLER_0_27_217
*785 FILLER_0_27_223
*786 FILLER_0_27_225
*787 FILLER_0_27_237
*788 FILLER_0_27_249
*789 FILLER_0_27_261
*790 FILLER_0_27_27
*791 FILLER_0_27_273
*792 FILLER_0_27_279
*793 FILLER_0_27_281
*794 FILLER_0_27_293
*795 FILLER_0_27_3
*796 FILLER_0_27_305
*797 FILLER_0_27_317
*798 FILLER_0_27_329
*799 FILLER_0_27_335
*800 FILLER_0_27_337
*801 FILLER_0_27_349
*802 FILLER_0_27_39
*803 FILLER_0_27_51
*804 FILLER_0_27_55
*805 FILLER_0_27_57
*806 FILLER_0_27_69
*807 FILLER_0_27_81
*808 FILLER_0_27_93
*809 FILLER_0_28_109
*810 FILLER_0_28_121
*811 FILLER_0_28_133
*812 FILLER_0_28_139
*813 FILLER_0_28_141
*814 FILLER_0_28_15
*815 FILLER_0_28_153
*816 FILLER_0_28_165
*817 FILLER_0_28_177
*818 FILLER_0_28_189
*819 FILLER_0_28_195
*820 FILLER_0_28_197
*821 FILLER_0_28_209
*822 FILLER_0_28_221
*823 FILLER_0_28_233
*824 FILLER_0_28_245
*825 FILLER_0_28_251
*826 FILLER_0_28_253
*827 FILLER_0_28_265
*828 FILLER_0_28_27
*829 FILLER_0_28_277
*830 FILLER_0_28_289
*831 FILLER_0_28_29
*832 FILLER_0_28_3
*833 FILLER_0_28_301
*834 FILLER_0_28_307
*835 FILLER_0_28_309
*836 FILLER_0_28_321
*837 FILLER_0_28_333
*838 FILLER_0_28_345
*839 FILLER_0_28_41
*840 FILLER_0_28_53
*841 FILLER_0_28_65
*842 FILLER_0_28_77
*843 FILLER_0_28_83
*844 FILLER_0_28_85
*845 FILLER_0_28_97
*846 FILLER_0_29_105
*847 FILLER_0_29_111
*848 FILLER_0_29_113
*849 FILLER_0_29_125
*850 FILLER_0_29_137
*851 FILLER_0_29_149
*852 FILLER_0_29_15
*853 FILLER_0_29_161
*854 FILLER_0_29_167
*855 FILLER_0_29_169
*856 FILLER_0_29_181
*857 FILLER_0_29_193
*858 FILLER_0_29_205
*859 FILLER_0_29_217
*860 FILLER_0_29_223
*861 FILLER_0_29_225
*862 FILLER_0_29_237
*863 FILLER_0_29_249
*864 FILLER_0_29_261
*865 FILLER_0_29_27
*866 FILLER_0_29_273
*867 FILLER_0_29_279
*868 FILLER_0_29_281
*869 FILLER_0_29_293
*870 FILLER_0_29_3
*871 FILLER_0_29_305
*872 FILLER_0_29_317
*873 FILLER_0_29_329
*874 FILLER_0_29_335
*875 FILLER_0_29_337
*876 FILLER_0_29_349
*877 FILLER_0_29_39
*878 FILLER_0_29_51
*879 FILLER_0_29_55
*880 FILLER_0_29_57
*881 FILLER_0_29_69
*882 FILLER_0_29_81
*883 FILLER_0_29_93
*884 FILLER_0_2_109
*885 FILLER_0_2_121
*886 FILLER_0_2_133
*887 FILLER_0_2_139
*888 FILLER_0_2_141
*889 FILLER_0_2_15
*890 FILLER_0_2_153
*891 FILLER_0_2_165
*892 FILLER_0_2_177
*893 FILLER_0_2_189
*894 FILLER_0_2_195
*895 FILLER_0_2_197
*896 FILLER_0_2_209
*897 FILLER_0_2_221
*898 FILLER_0_2_233
*899 FILLER_0_2_245
*900 FILLER_0_2_251
*901 FILLER_0_2_253
*902 FILLER_0_2_265
*903 FILLER_0_2_27
*904 FILLER_0_2_277
*905 FILLER_0_2_289
*906 FILLER_0_2_29
*907 FILLER_0_2_3
*908 FILLER_0_2_301
*909 FILLER_0_2_307
*910 FILLER_0_2_309
*911 FILLER_0_2_321
*912 FILLER_0_2_333
*913 FILLER_0_2_345
*914 FILLER_0_2_41
*915 FILLER_0_2_53
*916 FILLER_0_2_65
*917 FILLER_0_2_77
*918 FILLER_0_2_83
*919 FILLER_0_2_85
*920 FILLER_0_2_97
*921 FILLER_0_30_109
*922 FILLER_0_30_121
*923 FILLER_0_30_133
*924 FILLER_0_30_139
*925 FILLER_0_30_141
*926 FILLER_0_30_15
*927 FILLER_0_30_153
*928 FILLER_0_30_165
*929 FILLER_0_30_177
*930 FILLER_0_30_189
*931 FILLER_0_30_195
*932 FILLER_0_30_197
*933 FILLER_0_30_209
*934 FILLER_0_30_221
*935 FILLER_0_30_233
*936 FILLER_0_30_245
*937 FILLER_0_30_251
*938 FILLER_0_30_253
*939 FILLER_0_30_265
*940 FILLER_0_30_27
*941 FILLER_0_30_277
*942 FILLER_0_30_289
*943 FILLER_0_30_29
*944 FILLER_0_30_3
*945 FILLER_0_30_301
*946 FILLER_0_30_307
*947 FILLER_0_30_309
*948 FILLER_0_30_321
*949 FILLER_0_30_333
*950 FILLER_0_30_345
*951 FILLER_0_30_41
*952 FILLER_0_30_53
*953 FILLER_0_30_65
*954 FILLER_0_30_77
*955 FILLER_0_30_83
*956 FILLER_0_30_85
*957 FILLER_0_30_97
*958 FILLER_0_31_105
*959 FILLER_0_31_111
*960 FILLER_0_31_113
*961 FILLER_0_31_125
*962 FILLER_0_31_137
*963 FILLER_0_31_149
*964 FILLER_0_31_15
*965 FILLER_0_31_161
*966 FILLER_0_31_167
*967 FILLER_0_31_169
*968 FILLER_0_31_181
*969 FILLER_0_31_193
*970 FILLER_0_31_205
*971 FILLER_0_31_217
*972 FILLER_0_31_223
*973 FILLER_0_31_225
*974 FILLER_0_31_237
*975 FILLER_0_31_249
*976 FILLER_0_31_261
*977 FILLER_0_31_27
*978 FILLER_0_31_273
*979 FILLER_0_31_279
*980 FILLER_0_31_281
*981 FILLER_0_31_293
*982 FILLER_0_31_3
*983 FILLER_0_31_305
*984 FILLER_0_31_317
*985 FILLER_0_31_329
*986 FILLER_0_31_335
*987 FILLER_0_31_337
*988 FILLER_0_31_349
*989 FILLER_0_31_39
*990 FILLER_0_31_51
*991 FILLER_0_31_55
*992 FILLER_0_31_57
*993 FILLER_0_31_69
*994 FILLER_0_31_81
*995 FILLER_0_31_93
*996 FILLER_0_32_109
*997 FILLER_0_32_121
*998 FILLER_0_32_133
*999 FILLER_0_32_139
*1000 FILLER_0_32_141
*1001 FILLER_0_32_15
*1002 FILLER_0_32_153
*1003 FILLER_0_32_165
*1004 FILLER_0_32_177
*1005 FILLER_0_32_189
*1006 FILLER_0_32_195
*1007 FILLER_0_32_197
*1008 FILLER_0_32_209
*1009 FILLER_0_32_221
*1010 FILLER_0_32_233
*1011 FILLER_0_32_245
*1012 FILLER_0_32_251
*1013 FILLER_0_32_253
*1014 FILLER_0_32_265
*1015 FILLER_0_32_27
*1016 FILLER_0_32_277
*1017 FILLER_0_32_289
*1018 FILLER_0_32_29
*1019 FILLER_0_32_3
*1020 FILLER_0_32_301
*1021 FILLER_0_32_307
*1022 FILLER_0_32_309
*1023 FILLER_0_32_321
*1024 FILLER_0_32_333
*1025 FILLER_0_32_345
*1026 FILLER_0_32_41
*1027 FILLER_0_32_53
*1028 FILLER_0_32_65
*1029 FILLER_0_32_77
*1030 FILLER_0_32_83
*1031 FILLER_0_32_85
*1032 FILLER_0_32_97
*1033 FILLER_0_33_105
*1034 FILLER_0_33_111
*1035 FILLER_0_33_113
*1036 FILLER_0_33_125
*1037 FILLER_0_33_137
*1038 FILLER_0_33_149
*1039 FILLER_0_33_15
*1040 FILLER_0_33_161
*1041 FILLER_0_33_167
*1042 FILLER_0_33_169
*1043 FILLER_0_33_181
*1044 FILLER_0_33_193
*1045 FILLER_0_33_205
*1046 FILLER_0_33_217
*1047 FILLER_0_33_223
*1048 FILLER_0_33_225
*1049 FILLER_0_33_237
*1050 FILLER_0_33_249
*1051 FILLER_0_33_261
*1052 FILLER_0_33_27
*1053 FILLER_0_33_273
*1054 FILLER_0_33_279
*1055 FILLER_0_33_281
*1056 FILLER_0_33_293
*1057 FILLER_0_33_3
*1058 FILLER_0_33_305
*1059 FILLER_0_33_317
*1060 FILLER_0_33_329
*1061 FILLER_0_33_335
*1062 FILLER_0_33_337
*1063 FILLER_0_33_349
*1064 FILLER_0_33_39
*1065 FILLER_0_33_51
*1066 FILLER_0_33_55
*1067 FILLER_0_33_57
*1068 FILLER_0_33_69
*1069 FILLER_0_33_81
*1070 FILLER_0_33_93
*1071 FILLER_0_34_109
*1072 FILLER_0_34_121
*1073 FILLER_0_34_133
*1074 FILLER_0_34_139
*1075 FILLER_0_34_141
*1076 FILLER_0_34_15
*1077 FILLER_0_34_153
*1078 FILLER_0_34_165
*1079 FILLER_0_34_177
*1080 FILLER_0_34_189
*1081 FILLER_0_34_195
*1082 FILLER_0_34_197
*1083 FILLER_0_34_209
*1084 FILLER_0_34_221
*1085 FILLER_0_34_233
*1086 FILLER_0_34_245
*1087 FILLER_0_34_251
*1088 FILLER_0_34_253
*1089 FILLER_0_34_265
*1090 FILLER_0_34_27
*1091 FILLER_0_34_277
*1092 FILLER_0_34_289
*1093 FILLER_0_34_29
*1094 FILLER_0_34_3
*1095 FILLER_0_34_301
*1096 FILLER_0_34_307
*1097 FILLER_0_34_309
*1098 FILLER_0_34_321
*1099 FILLER_0_34_333
*1100 FILLER_0_34_345
*1101 FILLER_0_34_41
*1102 FILLER_0_34_53
*1103 FILLER_0_34_65
*1104 FILLER_0_34_77
*1105 FILLER_0_34_83
*1106 FILLER_0_34_85
*1107 FILLER_0_34_97
*1108 FILLER_0_35_105
*1109 FILLER_0_35_111
*1110 FILLER_0_35_113
*1111 FILLER_0_35_125
*1112 FILLER_0_35_137
*1113 FILLER_0_35_149
*1114 FILLER_0_35_15
*1115 FILLER_0_35_161
*1116 FILLER_0_35_167
*1117 FILLER_0_35_169
*1118 FILLER_0_35_181
*1119 FILLER_0_35_193
*1120 FILLER_0_35_205
*1121 FILLER_0_35_217
*1122 FILLER_0_35_223
*1123 FILLER_0_35_225
*1124 FILLER_0_35_237
*1125 FILLER_0_35_249
*1126 FILLER_0_35_261
*1127 FILLER_0_35_27
*1128 FILLER_0_35_273
*1129 FILLER_0_35_279
*1130 FILLER_0_35_281
*1131 FILLER_0_35_293
*1132 FILLER_0_35_3
*1133 FILLER_0_35_305
*1134 FILLER_0_35_317
*1135 FILLER_0_35_329
*1136 FILLER_0_35_335
*1137 FILLER_0_35_337
*1138 FILLER_0_35_349
*1139 FILLER_0_35_39
*1140 FILLER_0_35_51
*1141 FILLER_0_35_55
*1142 FILLER_0_35_57
*1143 FILLER_0_35_69
*1144 FILLER_0_35_81
*1145 FILLER_0_35_93
*1146 FILLER_0_36_109
*1147 FILLER_0_36_121
*1148 FILLER_0_36_133
*1149 FILLER_0_36_139
*1150 FILLER_0_36_141
*1151 FILLER_0_36_15
*1152 FILLER_0_36_153
*1153 FILLER_0_36_165
*1154 FILLER_0_36_177
*1155 FILLER_0_36_189
*1156 FILLER_0_36_195
*1157 FILLER_0_36_197
*1158 FILLER_0_36_209
*1159 FILLER_0_36_221
*1160 FILLER_0_36_233
*1161 FILLER_0_36_245
*1162 FILLER_0_36_251
*1163 FILLER_0_36_253
*1164 FILLER_0_36_265
*1165 FILLER_0_36_27
*1166 FILLER_0_36_277
*1167 FILLER_0_36_289
*1168 FILLER_0_36_29
*1169 FILLER_0_36_3
*1170 FILLER_0_36_301
*1171 FILLER_0_36_307
*1172 FILLER_0_36_309
*1173 FILLER_0_36_321
*1174 FILLER_0_36_333
*1175 FILLER_0_36_345
*1176 FILLER_0_36_41
*1177 FILLER_0_36_53
*1178 FILLER_0_36_65
*1179 FILLER_0_36_77
*1180 FILLER_0_36_83
*1181 FILLER_0_36_85
*1182 FILLER_0_36_97
*1183 FILLER_0_37_105
*1184 FILLER_0_37_111
*1185 FILLER_0_37_113
*1186 FILLER_0_37_125
*1187 FILLER_0_37_137
*1188 FILLER_0_37_149
*1189 FILLER_0_37_15
*1190 FILLER_0_37_161
*1191 FILLER_0_37_167
*1192 FILLER_0_37_169
*1193 FILLER_0_37_181
*1194 FILLER_0_37_193
*1195 FILLER_0_37_205
*1196 FILLER_0_37_217
*1197 FILLER_0_37_223
*1198 FILLER_0_37_225
*1199 FILLER_0_37_237
*1200 FILLER_0_37_249
*1201 FILLER_0_37_261
*1202 FILLER_0_37_27
*1203 FILLER_0_37_273
*1204 FILLER_0_37_279
*1205 FILLER_0_37_281
*1206 FILLER_0_37_293
*1207 FILLER_0_37_3
*1208 FILLER_0_37_305
*1209 FILLER_0_37_317
*1210 FILLER_0_37_329
*1211 FILLER_0_37_335
*1212 FILLER_0_37_337
*1213 FILLER_0_37_349
*1214 FILLER_0_37_39
*1215 FILLER_0_37_51
*1216 FILLER_0_37_55
*1217 FILLER_0_37_57
*1218 FILLER_0_37_69
*1219 FILLER_0_37_81
*1220 FILLER_0_37_93
*1221 FILLER_0_38_109
*1222 FILLER_0_38_121
*1223 FILLER_0_38_133
*1224 FILLER_0_38_139
*1225 FILLER_0_38_141
*1226 FILLER_0_38_15
*1227 FILLER_0_38_153
*1228 FILLER_0_38_165
*1229 FILLER_0_38_177
*1230 FILLER_0_38_189
*1231 FILLER_0_38_195
*1232 FILLER_0_38_197
*1233 FILLER_0_38_209
*1234 FILLER_0_38_221
*1235 FILLER_0_38_233
*1236 FILLER_0_38_245
*1237 FILLER_0_38_251
*1238 FILLER_0_38_253
*1239 FILLER_0_38_265
*1240 FILLER_0_38_27
*1241 FILLER_0_38_277
*1242 FILLER_0_38_289
*1243 FILLER_0_38_29
*1244 FILLER_0_38_3
*1245 FILLER_0_38_301
*1246 FILLER_0_38_307
*1247 FILLER_0_38_309
*1248 FILLER_0_38_321
*1249 FILLER_0_38_333
*1250 FILLER_0_38_345
*1251 FILLER_0_38_41
*1252 FILLER_0_38_53
*1253 FILLER_0_38_65
*1254 FILLER_0_38_77
*1255 FILLER_0_38_83
*1256 FILLER_0_38_85
*1257 FILLER_0_38_97
*1258 FILLER_0_39_105
*1259 FILLER_0_39_111
*1260 FILLER_0_39_113
*1261 FILLER_0_39_125
*1262 FILLER_0_39_137
*1263 FILLER_0_39_149
*1264 FILLER_0_39_15
*1265 FILLER_0_39_161
*1266 FILLER_0_39_167
*1267 FILLER_0_39_169
*1268 FILLER_0_39_181
*1269 FILLER_0_39_193
*1270 FILLER_0_39_205
*1271 FILLER_0_39_217
*1272 FILLER_0_39_223
*1273 FILLER_0_39_225
*1274 FILLER_0_39_237
*1275 FILLER_0_39_249
*1276 FILLER_0_39_261
*1277 FILLER_0_39_27
*1278 FILLER_0_39_273
*1279 FILLER_0_39_279
*1280 FILLER_0_39_281
*1281 FILLER_0_39_293
*1282 FILLER_0_39_3
*1283 FILLER_0_39_305
*1284 FILLER_0_39_317
*1285 FILLER_0_39_329
*1286 FILLER_0_39_335
*1287 FILLER_0_39_337
*1288 FILLER_0_39_349
*1289 FILLER_0_39_39
*1290 FILLER_0_39_51
*1291 FILLER_0_39_55
*1292 FILLER_0_39_57
*1293 FILLER_0_39_69
*1294 FILLER_0_39_81
*1295 FILLER_0_39_93
*1296 FILLER_0_3_105
*1297 FILLER_0_3_111
*1298 FILLER_0_3_113
*1299 FILLER_0_3_125
*1300 FILLER_0_3_137
*1301 FILLER_0_3_149
*1302 FILLER_0_3_15
*1303 FILLER_0_3_161
*1304 FILLER_0_3_167
*1305 FILLER_0_3_169
*1306 FILLER_0_3_181
*1307 FILLER_0_3_193
*1308 FILLER_0_3_205
*1309 FILLER_0_3_217
*1310 FILLER_0_3_223
*1311 FILLER_0_3_225
*1312 FILLER_0_3_237
*1313 FILLER_0_3_249
*1314 FILLER_0_3_261
*1315 FILLER_0_3_27
*1316 FILLER_0_3_273
*1317 FILLER_0_3_279
*1318 FILLER_0_3_281
*1319 FILLER_0_3_293
*1320 FILLER_0_3_3
*1321 FILLER_0_3_305
*1322 FILLER_0_3_317
*1323 FILLER_0_3_329
*1324 FILLER_0_3_335
*1325 FILLER_0_3_337
*1326 FILLER_0_3_349
*1327 FILLER_0_3_39
*1328 FILLER_0_3_51
*1329 FILLER_0_3_55
*1330 FILLER_0_3_57
*1331 FILLER_0_3_69
*1332 FILLER_0_3_81
*1333 FILLER_0_3_93
*1334 FILLER_0_40_109
*1335 FILLER_0_40_121
*1336 FILLER_0_40_133
*1337 FILLER_0_40_139
*1338 FILLER_0_40_141
*1339 FILLER_0_40_15
*1340 FILLER_0_40_153
*1341 FILLER_0_40_165
*1342 FILLER_0_40_177
*1343 FILLER_0_40_189
*1344 FILLER_0_40_195
*1345 FILLER_0_40_197
*1346 FILLER_0_40_209
*1347 FILLER_0_40_221
*1348 FILLER_0_40_233
*1349 FILLER_0_40_245
*1350 FILLER_0_40_251
*1351 FILLER_0_40_253
*1352 FILLER_0_40_265
*1353 FILLER_0_40_27
*1354 FILLER_0_40_277
*1355 FILLER_0_40_289
*1356 FILLER_0_40_29
*1357 FILLER_0_40_3
*1358 FILLER_0_40_301
*1359 FILLER_0_40_307
*1360 FILLER_0_40_309
*1361 FILLER_0_40_321
*1362 FILLER_0_40_333
*1363 FILLER_0_40_345
*1364 FILLER_0_40_41
*1365 FILLER_0_40_53
*1366 FILLER_0_40_65
*1367 FILLER_0_40_77
*1368 FILLER_0_40_83
*1369 FILLER_0_40_85
*1370 FILLER_0_40_97
*1371 FILLER_0_41_105
*1372 FILLER_0_41_111
*1373 FILLER_0_41_113
*1374 FILLER_0_41_125
*1375 FILLER_0_41_137
*1376 FILLER_0_41_149
*1377 FILLER_0_41_15
*1378 FILLER_0_41_161
*1379 FILLER_0_41_167
*1380 FILLER_0_41_169
*1381 FILLER_0_41_181
*1382 FILLER_0_41_193
*1383 FILLER_0_41_205
*1384 FILLER_0_41_217
*1385 FILLER_0_41_223
*1386 FILLER_0_41_225
*1387 FILLER_0_41_237
*1388 FILLER_0_41_249
*1389 FILLER_0_41_261
*1390 FILLER_0_41_27
*1391 FILLER_0_41_273
*1392 FILLER_0_41_279
*1393 FILLER_0_41_281
*1394 FILLER_0_41_293
*1395 FILLER_0_41_3
*1396 FILLER_0_41_305
*1397 FILLER_0_41_317
*1398 FILLER_0_41_329
*1399 FILLER_0_41_335
*1400 FILLER_0_41_337
*1401 FILLER_0_41_349
*1402 FILLER_0_41_39
*1403 FILLER_0_41_51
*1404 FILLER_0_41_55
*1405 FILLER_0_41_57
*1406 FILLER_0_41_69
*1407 FILLER_0_41_81
*1408 FILLER_0_41_93
*1409 FILLER_0_42_109
*1410 FILLER_0_42_121
*1411 FILLER_0_42_133
*1412 FILLER_0_42_139
*1413 FILLER_0_42_141
*1414 FILLER_0_42_15
*1415 FILLER_0_42_153
*1416 FILLER_0_42_165
*1417 FILLER_0_42_177
*1418 FILLER_0_42_189
*1419 FILLER_0_42_195
*1420 FILLER_0_42_197
*1421 FILLER_0_42_209
*1422 FILLER_0_42_221
*1423 FILLER_0_42_233
*1424 FILLER_0_42_245
*1425 FILLER_0_42_251
*1426 FILLER_0_42_253
*1427 FILLER_0_42_265
*1428 FILLER_0_42_27
*1429 FILLER_0_42_277
*1430 FILLER_0_42_289
*1431 FILLER_0_42_29
*1432 FILLER_0_42_3
*1433 FILLER_0_42_301
*1434 FILLER_0_42_307
*1435 FILLER_0_42_309
*1436 FILLER_0_42_321
*1437 FILLER_0_42_333
*1438 FILLER_0_42_345
*1439 FILLER_0_42_41
*1440 FILLER_0_42_53
*1441 FILLER_0_42_65
*1442 FILLER_0_42_77
*1443 FILLER_0_42_83
*1444 FILLER_0_42_85
*1445 FILLER_0_42_97
*1446 FILLER_0_43_105
*1447 FILLER_0_43_111