*SPEF "ieee 1481-1999"
*DESIGN "tt_um_i2c"
*DATE "11:11:11 Fri 11 11, 1111"
*VENDOR "OpenRCX"
*PROGRAM "Parallel Extraction"
*VERSION "1.0"
*DESIGN_FLOW "NAME_SCOPE LOCAL" "PIN_CAP NONE"
*DIVIDER /
*DELIMITER :
*BUS_DELIMITER []
*T_UNIT 1 NS
*C_UNIT 1 PF
*R_UNIT 1 OHM
*L_UNIT 1 HENRY

*NAME_MAP
*3 clk
*4 ena
*5 rst_n
*6 ui_in[0]
*7 ui_in[1]
*8 ui_in[2]
*9 ui_in[3]
*10 ui_in[4]
*11 ui_in[5]
*12 ui_in[6]
*13 ui_in[7]
*14 uio_in[0]
*15 uio_in[1]
*16 uio_in[2]
*17 uio_in[3]
*18 uio_in[4]
*19 uio_in[5]
*20 uio_in[6]
*21 uio_in[7]
*22 uio_oe[0]
*23 net10
*24 net24
*25 net25
*26 net26
*27 net27
*28 net28
*29 net29
*30 uio_out[0]
*31 uio_out[1]
*32 net11
*33 net12
*34 net13
*35 net14
*36 net15
*37 net16
*38 uo_out[0]
*39 net17
*40 net18
*41 net19
*42 net20
*43 net21
*44 net22
*45 net23
*46 _0000_
*47 _0001_
*48 _0002_
*49 _0003_
*50 _0004_
*51 _0005_
*52 _0006_
*53 _0007_
*54 _0008_
*55 _0009_
*56 _0010_
*57 _0011_
*58 _0012_
*59 _0013_
*60 _0014_
*61 _0015_
*62 _0016_
*63 _0017_
*64 _0018_
*65 _0019_
*66 _0020_
*67 _0021_
*68 _0022_
*69 _0023_
*70 _0024_
*71 _0025_
*72 _0026_
*73 _0027_
*74 _0028_
*75 _0029_
*76 _0030_
*77 _0031_
*78 _0032_
*79 _0033_
*80 _0034_
*81 _0035_
*82 _0036_
*83 _0037_
*84 _0038_
*85 _0039_
*86 _0040_
*87 _0041_
*88 _0042_
*89 _0043_
*90 _0044_
*91 _0045_
*92 _0046_
*93 _0047_
*94 _0048_
*95 _0049_
*96 _0050_
*97 _0051_
*98 _0052_
*99 _0053_
*100 _0054_
*101 _0055_
*102 _0056_
*103 _0057_
*104 _0058_
*105 _0059_
*106 _0060_
*107 _0061_
*108 _0062_
*109 _0063_
*110 _0064_
*111 _0065_
*112 _0066_
*113 _0067_
*114 _0068_
*115 _0069_
*116 _0070_
*117 _0071_
*118 _0072_
*119 _0073_
*120 _0074_
*121 _0075_
*122 _0076_
*123 _0077_
*124 _0078_
*125 _0079_
*126 _0080_
*127 _0081_
*128 _0082_
*129 _0083_
*130 _0084_
*131 _0085_
*132 _0086_
*133 _0087_
*134 _0088_
*135 _0089_
*136 _0090_
*137 _0091_
*138 _0092_
*139 _0093_
*140 _0094_
*141 _0095_
*142 _0096_
*143 _0097_
*144 _0098_
*145 _0099_
*146 _0100_
*147 _0101_
*148 _0102_
*149 _0103_
*150 _0104_
*151 _0105_
*152 _0106_
*153 _0107_
*154 _0108_
*155 _0109_
*156 _0110_
*157 _0111_
*158 _0112_
*159 _0113_
*160 _0114_
*161 _0115_
*162 _0116_
*163 _0117_
*164 _0118_
*165 _0119_
*166 _0120_
*167 _0121_
*168 _0122_
*169 _0123_
*170 _0124_
*171 _0125_
*172 _0126_
*173 _0127_
*174 _0128_
*175 _0129_
*176 _0130_
*177 _0131_
*178 _0132_
*179 _0133_
*180 _0134_
*181 _0135_
*182 _0136_
*183 _0137_
*184 _0138_
*185 _0139_
*186 _0140_
*187 _0141_
*188 _0142_
*189 _0143_
*190 _0144_
*191 _0145_
*192 _0146_
*193 _0147_
*194 _0148_
*195 _0149_
*196 _0150_
*197 _0151_
*198 _0152_
*199 _0153_
*200 _0154_
*201 _0155_
*202 _0156_
*203 _0157_
*204 _0158_
*205 _0159_
*206 _0160_
*207 _0161_
*208 _0162_
*209 _0163_
*210 _0164_
*211 _0165_
*212 _0166_
*213 _0167_
*214 _0168_
*215 _0169_
*216 _0170_
*217 _0171_
*218 _0172_
*219 _0173_
*220 _0174_
*221 _0175_
*222 _0176_
*223 _0177_
*224 _0178_
*225 _0179_
*226 _0180_
*227 _0181_
*228 _0182_
*229 _0183_
*230 _0184_
*231 _0185_
*232 _0186_
*233 _0187_
*234 _0188_
*235 _0189_
*236 _0190_
*237 _0191_
*238 _0192_
*239 _0193_
*240 _0194_
*241 _0195_
*242 _0196_
*243 _0197_
*244 _0198_
*245 _0199_
*246 _0200_
*247 _0201_
*248 _0202_
*249 _0203_
*250 _0204_
*251 _0205_
*252 _0206_
*253 _0207_
*254 _0208_
*255 _0209_
*256 _0210_
*257 _0211_
*258 _0212_
*259 _0213_
*260 _0214_
*261 _0215_
*262 _0216_
*263 _0217_
*264 _0218_
*265 _0219_
*266 _0220_
*267 _0221_
*268 _0222_
*269 _0223_
*270 _0224_
*271 _0225_
*272 _0226_
*273 _0227_
*274 _0228_
*275 _0229_
*276 _0230_
*277 _0231_
*278 _0232_
*279 _0233_
*280 _0234_
*281 _0235_
*282 _0236_
*283 _0237_
*284 _0238_
*285 _0239_
*286 _0240_
*287 _0241_
*288 _0242_
*289 _0243_
*290 _0244_
*291 _0245_
*292 _0246_
*293 _0247_
*294 _0248_
*295 _0249_
*296 _0250_
*297 _0251_
*298 _0252_
*299 _0253_
*300 _0254_
*301 _0255_
*302 _0256_
*303 _0257_
*304 _0258_
*305 _0259_
*306 _0260_
*307 _0261_
*308 _0262_
*309 _0263_
*310 _0264_
*311 _0265_
*312 _0266_
*313 _0267_
*314 _0268_
*315 _0269_
*316 _0270_
*317 _0271_
*318 _0272_
*319 _0273_
*320 _0274_
*321 _0275_
*322 _0276_
*323 _0277_
*324 _0278_
*325 _0279_
*326 _0280_
*327 _0281_
*328 _0282_
*329 _0283_
*330 _0284_
*331 _0285_
*332 _0286_
*333 _0287_
*334 _0288_
*335 _0289_
*336 _0290_
*337 _0291_
*338 _0292_
*339 _0293_
*340 _0294_
*341 _0295_
*342 _0296_
*343 _0297_
*344 _0298_
*345 _0299_
*346 _0300_
*347 _0301_
*348 _0302_
*349 _0303_
*350 _0304_
*351 _0305_
*352 _0306_
*353 _0307_
*354 _0308_
*355 _0309_
*356 _0310_
*357 _0311_
*358 _0312_
*359 _0313_
*360 _0314_
*361 _0315_
*362 _0316_
*363 _0317_
*364 _0318_
*365 _0319_
*366 _0320_
*367 _0321_
*368 _0322_
*369 _0323_
*370 _0324_
*371 _0325_
*372 _0326_
*373 _0327_
*374 _0328_
*375 _0329_
*376 _0330_
*377 _0331_
*378 _0332_
*379 _0333_
*380 _0334_
*381 _0335_
*382 _0336_
*383 _0337_
*384 _0338_
*385 _0339_
*386 _0340_
*387 _0341_
*388 _0342_
*389 _0343_
*390 _0344_
*391 _0345_
*392 _0346_
*393 _0347_
*394 _0348_
*395 _0349_
*396 _0350_
*397 _0351_
*398 _0352_
*399 _0353_
*400 _0354_
*401 _0355_
*402 _0356_
*403 _0357_
*404 _0358_
*405 _0359_
*406 _0360_
*407 _0361_
*408 _0362_
*409 _0363_
*410 _0364_
*411 _0365_
*412 _0366_
*413 _0367_
*414 _0368_
*415 _0369_
*416 _0370_
*417 _0371_
*418 _0372_
*419 _0373_
*420 _0374_
*421 _0375_
*422 _0376_
*423 _0377_
*424 _0378_
*425 _0379_
*426 _0380_
*427 _0381_
*428 _0382_
*429 _0383_
*430 _0384_
*431 _0385_
*432 _0386_
*433 _0387_
*434 _0388_
*435 _0389_
*436 _0390_
*437 _0391_
*438 _0392_
*439 _0393_
*440 _0394_
*441 _0395_
*442 _0396_
*443 _0397_
*444 _0398_
*445 _0399_
*446 _0400_
*447 _0401_
*448 _0402_
*449 _0403_
*450 _0404_
*451 _0405_
*452 _0406_
*453 _0407_
*454 _0408_
*455 _0409_
*456 _0410_
*457 _0411_
*458 _0412_
*459 _0413_
*460 _0414_
*461 _0415_
*462 _0416_
*463 _0417_
*464 _0418_
*465 _0419_
*466 _0420_
*467 _0421_
*468 _0422_
*469 _0423_
*470 _0424_
*471 _0425_
*472 _0426_
*473 _0427_
*474 _0428_
*475 _0429_
*476 _0430_
*477 _0431_
*478 _0432_
*479 _0433_
*480 _0434_
*481 _0435_
*482 _0436_
*483 _0437_
*484 _0438_
*485 _0439_
*486 _0440_
*487 _0441_
*488 _0442_
*489 _0443_
*490 _0444_
*491 _0445_
*492 _0446_
*493 _0447_
*494 _0448_
*495 _0449_
*496 _0450_
*497 _0451_
*498 _0452_
*499 _0453_
*500 _0454_
*501 _0455_
*502 _0456_
*503 _0457_
*504 _0458_
*505 _0459_
*506 _0460_
*507 _0461_
*508 _0462_
*509 _0463_
*510 _0464_
*511 _0465_
*512 _0466_
*513 _0467_
*514 _0468_
*515 _0469_
*516 _0470_
*517 _0471_
*518 _0472_
*519 _0473_
*520 _0474_
*521 _0475_
*522 _0476_
*523 _0477_
*524 _0478_
*525 _0479_
*526 _0480_
*527 _0481_
*528 _0482_
*529 _0483_
*530 _0484_
*531 _0485_
*532 _0486_
*533 _0487_
*534 _0488_
*535 _0489_
*536 _0490_
*537 _0491_
*538 _0492_
*539 _0493_
*540 _0494_
*541 _0495_
*542 _0496_
*543 _0497_
*544 _0498_
*545 _0499_
*546 _0500_
*547 _0501_
*548 _0502_
*549 _0503_
*550 _0504_
*551 _0505_
*552 _0506_
*553 _0507_
*554 _0508_
*555 _0509_
*556 _0510_
*557 _0511_
*558 _0512_
*559 _0513_
*560 _0514_
*561 _0515_
*562 _0516_
*563 _0517_
*564 _0518_
*565 _0519_
*566 _0520_
*567 _0521_
*568 _0522_
*569 _0523_
*570 _0524_
*571 _0525_
*572 _0526_
*573 _0527_
*574 _0528_
*575 _0529_
*576 _0530_
*577 _0531_
*578 _0532_
*579 _0533_
*580 _0534_
*581 _0535_
*582 _0536_
*583 _0537_
*584 _0538_
*585 _0539_
*586 _0540_
*587 _0541_
*588 _0542_
*589 _0543_
*590 _0544_
*591 _0545_
*592 _0546_
*593 _0547_
*594 _0548_
*595 _0549_
*596 _0550_
*597 _0551_
*598 _0552_
*599 _0553_
*600 _0554_
*601 _0555_
*602 _0556_
*603 _0557_
*604 _0558_
*605 _0559_
*606 _0560_
*607 _0561_
*608 _0562_
*609 _0563_
*610 _0564_
*611 _0565_
*612 _0566_
*613 _0567_
*614 _0568_
*615 _0569_
*616 _0570_
*617 _0571_
*618 clknet_0_clk
*619 clknet_3_0__leaf_clk
*620 clknet_3_1__leaf_clk
*621 clknet_3_2__leaf_clk
*622 clknet_3_3__leaf_clk
*623 clknet_3_4__leaf_clk
*624 clknet_3_5__leaf_clk
*625 clknet_3_6__leaf_clk
*626 clknet_3_7__leaf_clk
*627 i2c1\.addr_reg\[0\]
*628 i2c1\.addr_reg\[1\]
*629 i2c1\.addr_reg\[2\]
*630 i2c1\.addr_reg\[3\]
*631 i2c1\.addr_reg\[4\]
*632 i2c1\.bits_processed_reg\[0\]
*633 i2c1\.bits_processed_reg\[10\]
*634 i2c1\.bits_processed_reg\[11\]
*635 i2c1\.bits_processed_reg\[12\]
*636 i2c1\.bits_processed_reg\[13\]
*637 i2c1\.bits_processed_reg\[14\]
*638 i2c1\.bits_processed_reg\[15\]
*639 i2c1\.bits_processed_reg\[16\]
*640 i2c1\.bits_processed_reg\[17\]
*641 i2c1\.bits_processed_reg\[18\]
*642 i2c1\.bits_processed_reg\[19\]
*643 i2c1\.bits_processed_reg\[1\]
*644 i2c1\.bits_processed_reg\[20\]
*645 i2c1\.bits_processed_reg\[21\]
*646 i2c1\.bits_processed_reg\[22\]
*647 i2c1\.bits_processed_reg\[23\]
*648 i2c1\.bits_processed_reg\[24\]
*649 i2c1\.bits_processed_reg\[25\]
*650 i2c1\.bits_processed_reg\[26\]
*651 i2c1\.bits_processed_reg\[27\]
*652 i2c1\.bits_processed_reg\[28\]
*653 i2c1\.bits_processed_reg\[29\]
*654 i2c1\.bits_processed_reg\[2\]
*655 i2c1\.bits_processed_reg\[30\]
*656 i2c1\.bits_processed_reg\[31\]
*657 i2c1\.bits_processed_reg\[3\]
*658 i2c1\.bits_processed_reg\[4\]
*659 i2c1\.bits_processed_reg\[5\]
*660 i2c1\.bits_processed_reg\[6\]
*661 i2c1\.bits_processed_reg\[7\]
*662 i2c1\.bits_processed_reg\[8\]
*663 i2c1\.bits_processed_reg\[9\]
*664 i2c1\.cmd_reg
*665 i2c1\.continue_reg
*666 i2c1\.ctrl
*667 i2c1\.data_reg\[0\]
*668 i2c1\.data_to_master_reg\[0\]
*669 i2c1\.data_to_master_reg\[1\]
*670 i2c1\.data_to_master_reg\[2\]
*671 i2c1\.data_to_master_reg\[3\]
*672 i2c1\.data_to_master_reg\[4\]
*673 i2c1\.data_to_master_reg\[5\]
*674 i2c1\.scl_falling_reg
*675 i2c1\.scl_internal
*676 i2c1\.scl_prev_reg
*677 i2c1\.scl_rising_reg
*678 i2c1\.sda_internal
*679 i2c1\.sda_o_reg
*680 i2c1\.sda_prev_reg
*681 i2c1\.start_reg
*682 i2c1\.state_reg\[0\]
*683 i2c1\.state_reg\[1\]
*684 i2c1\.state_reg\[2\]
*685 i2c1\.state_reg\[3\]
*686 i2c1\.state_reg\[4\]
*687 i2c1\.state_reg\[5\]
*688 i2c1\.state_reg\[6\]
*689 i2c1\.state_reg\[7\]
*690 i2c1\.stop_reg
*691 net1
*692 net2
*693 net3
*694 net30
*695 net31
*696 net32
*697 net33
*698 net34
*699 net35
*700 net36
*701 net37
*702 net38
*703 net39
*704 net4
*705 net40
*706 net41
*707 net42
*708 net43
*709 net44
*710 net45
*711 net46
*712 net47
*713 net48
*714 net49
*715 net5
*716 net50
*717 net51
*718 net52
*719 net53
*720 net54
*721 net55
*722 net56
*723 net57
*724 net58
*725 net59
*726 net6
*727 net60
*728 net61
*729 net7
*730 net8
*731 net9
*732 FILLER_0_0_109
*733 FILLER_0_0_113
*734 FILLER_0_0_125
*735 FILLER_0_0_137
*736 FILLER_0_0_141
*737 FILLER_0_0_15
*738 FILLER_0_0_153
*739 FILLER_0_0_165
*740 FILLER_0_0_169
*741 FILLER_0_0_181
*742 FILLER_0_0_193
*743 FILLER_0_0_197
*744 FILLER_0_0_209
*745 FILLER_0_0_221
*746 FILLER_0_0_225
*747 FILLER_0_0_237
*748 FILLER_0_0_249
*749 FILLER_0_0_253
*750 FILLER_0_0_265
*751 FILLER_0_0_27
*752 FILLER_0_0_277
*753 FILLER_0_0_281
*754 FILLER_0_0_29
*755 FILLER_0_0_293
*756 FILLER_0_0_3
*757 FILLER_0_0_305
*758 FILLER_0_0_309
*759 FILLER_0_0_321
*760 FILLER_0_0_333
*761 FILLER_0_0_337
*762 FILLER_0_0_349
*763 FILLER_0_0_41
*764 FILLER_0_0_53
*765 FILLER_0_0_57
*766 FILLER_0_0_69
*767 FILLER_0_0_81
*768 FILLER_0_0_85
*769 FILLER_0_0_97
*770 FILLER_0_10_101
*771 FILLER_0_10_109
*772 FILLER_0_10_121
*773 FILLER_0_10_133
*774 FILLER_0_10_139
*775 FILLER_0_10_15
*776 FILLER_0_10_159
*777 FILLER_0_10_178
*778 FILLER_0_10_190
*779 FILLER_0_10_208
*780 FILLER_0_10_222
*781 FILLER_0_10_242
*782 FILLER_0_10_250
*783 FILLER_0_10_266
*784 FILLER_0_10_27
*785 FILLER_0_10_278
*786 FILLER_0_10_29
*787 FILLER_0_10_290
*788 FILLER_0_10_3
*789 FILLER_0_10_302
*790 FILLER_0_10_309
*791 FILLER_0_10_321
*792 FILLER_0_10_333
*793 FILLER_0_10_345
*794 FILLER_0_10_41
*795 FILLER_0_10_53
*796 FILLER_0_10_65
*797 FILLER_0_10_72
*798 FILLER_0_10_85
*799 FILLER_0_10_97
*800 FILLER_0_11_105
*801 FILLER_0_11_111
*802 FILLER_0_11_113
*803 FILLER_0_11_124
*804 FILLER_0_11_141
*805 FILLER_0_11_15
*806 FILLER_0_11_153
*807 FILLER_0_11_169
*808 FILLER_0_11_175
*809 FILLER_0_11_180
*810 FILLER_0_11_194
*811 FILLER_0_11_206
*812 FILLER_0_11_223
*813 FILLER_0_11_240
*814 FILLER_0_11_252
*815 FILLER_0_11_262
*816 FILLER_0_11_27
*817 FILLER_0_11_274
*818 FILLER_0_11_281
*819 FILLER_0_11_293
*820 FILLER_0_11_3
*821 FILLER_0_11_305
*822 FILLER_0_11_317
*823 FILLER_0_11_329
*824 FILLER_0_11_335
*825 FILLER_0_11_337
*826 FILLER_0_11_349
*827 FILLER_0_11_39
*828 FILLER_0_11_51
*829 FILLER_0_11_55
*830 FILLER_0_11_79
*831 FILLER_0_11_96
*832 FILLER_0_12_112
*833 FILLER_0_12_127
*834 FILLER_0_12_133
*835 FILLER_0_12_148
*836 FILLER_0_12_15
*837 FILLER_0_12_159
*838 FILLER_0_12_166
*839 FILLER_0_12_178
*840 FILLER_0_12_185
*841 FILLER_0_12_189
*842 FILLER_0_12_204
*843 FILLER_0_12_209
*844 FILLER_0_12_221
*845 FILLER_0_12_233
*846 FILLER_0_12_239
*847 FILLER_0_12_246
*848 FILLER_0_12_262
*849 FILLER_0_12_27
*850 FILLER_0_12_274
*851 FILLER_0_12_286
*852 FILLER_0_12_29
*853 FILLER_0_12_298
*854 FILLER_0_12_3
*855 FILLER_0_12_306
*856 FILLER_0_12_309
*857 FILLER_0_12_321
*858 FILLER_0_12_333
*859 FILLER_0_12_345
*860 FILLER_0_12_41
*861 FILLER_0_12_53
*862 FILLER_0_12_65
*863 FILLER_0_12_80
*864 FILLER_0_12_85
*865 FILLER_0_12_97
*866 FILLER_0_13_106
*867 FILLER_0_13_133
*868 FILLER_0_13_15
*869 FILLER_0_13_156
*870 FILLER_0_13_166
*871 FILLER_0_13_169
*872 FILLER_0_13_177
*873 FILLER_0_13_193
*874 FILLER_0_13_205
*875 FILLER_0_13_223
*876 FILLER_0_13_240
*877 FILLER_0_13_248
*878 FILLER_0_13_260
*879 FILLER_0_13_264
*880 FILLER_0_13_27
*881 FILLER_0_13_279
*882 FILLER_0_13_289
*883 FILLER_0_13_293
*884 FILLER_0_13_3
*885 FILLER_0_13_305
*886 FILLER_0_13_31
*887 FILLER_0_13_317
*888 FILLER_0_13_329
*889 FILLER_0_13_335
*890 FILLER_0_13_337
*891 FILLER_0_13_349
*892 FILLER_0_13_51
*893 FILLER_0_13_55
*894 FILLER_0_13_64
*895 FILLER_0_13_69
*896 FILLER_0_13_81
*897 FILLER_0_13_89
*898 FILLER_0_13_94
*899 FILLER_0_14_101
*900 FILLER_0_14_109
*901 FILLER_0_14_118
*902 FILLER_0_14_133
*903 FILLER_0_14_139
*904 FILLER_0_14_141
*905 FILLER_0_14_15
*906 FILLER_0_14_153
*907 FILLER_0_14_157
*908 FILLER_0_14_163
*909 FILLER_0_14_170
*910 FILLER_0_14_182
*911 FILLER_0_14_193
*912 FILLER_0_14_197
*913 FILLER_0_14_201
*914 FILLER_0_14_210
*915 FILLER_0_14_218
*916 FILLER_0_14_226
*917 FILLER_0_14_23
*918 FILLER_0_14_233
*919 FILLER_0_14_241
*920 FILLER_0_14_249
*921 FILLER_0_14_253
*922 FILLER_0_14_265
*923 FILLER_0_14_277
*924 FILLER_0_14_285
*925 FILLER_0_14_3
*926 FILLER_0_14_301
*927 FILLER_0_14_307
*928 FILLER_0_14_309
*929 FILLER_0_14_321
*930 FILLER_0_14_333
*931 FILLER_0_14_345
*932 FILLER_0_14_44
*933 FILLER_0_14_48
*934 FILLER_0_14_67
*935 FILLER_0_14_85
*936 FILLER_0_15_105
*937 FILLER_0_15_11
*938 FILLER_0_15_111
*939 FILLER_0_15_113
*940 FILLER_0_15_125
*941 FILLER_0_15_133
*942 FILLER_0_15_137
*943 FILLER_0_15_144
*944 FILLER_0_15_148
*945 FILLER_0_15_160
*946 FILLER_0_15_169
*947 FILLER_0_15_178
*948 FILLER_0_15_193
*949 FILLER_0_15_201
*950 FILLER_0_15_208
*951 FILLER_0_15_215
*952 FILLER_0_15_223
*953 FILLER_0_15_242
*954 FILLER_0_15_256
*955 FILLER_0_15_277
*956 FILLER_0_15_281
*957 FILLER_0_15_291
*958 FILLER_0_15_3
*959 FILLER_0_15_303
*960 FILLER_0_15_31
*961 FILLER_0_15_313
*962 FILLER_0_15_325
*963 FILLER_0_15_333
*964 FILLER_0_15_337
*965 FILLER_0_15_349
*966 FILLER_0_15_41
*967 FILLER_0_15_53
*968 FILLER_0_15_57
*969 FILLER_0_15_81
*970 FILLER_0_15_93
*971 FILLER_0_16_101
*972 FILLER_0_16_128
*973 FILLER_0_16_138
*974 FILLER_0_16_141
*975 FILLER_0_16_149
*976 FILLER_0_16_15
*977 FILLER_0_16_172
*978 FILLER_0_16_180
*979 FILLER_0_16_194
*980 FILLER_0_16_201
*981 FILLER_0_16_213
*982 FILLER_0_16_225
*983 FILLER_0_16_23
*984 FILLER_0_16_231
*985 FILLER_0_16_245
*986 FILLER_0_16_251
*987 FILLER_0_16_253
*988 FILLER_0_16_265
*989 FILLER_0_16_274
*990 FILLER_0_16_280
*991 FILLER_0_16_285
*992 FILLER_0_16_29
*993 FILLER_0_16_295
*994 FILLER_0_16_3
*995 FILLER_0_16_307
*996 FILLER_0_16_316
*997 FILLER_0_16_328
*998 FILLER_0_16_347
*999 FILLER_0_16_38
*1000 FILLER_0_16_47
*1001 FILLER_0_16_59
*1002 FILLER_0_16_67
*1003 FILLER_0_16_85
*1004 FILLER_0_16_93
*1005 FILLER_0_17_113
*1006 FILLER_0_17_125
*1007 FILLER_0_17_137
*1008 FILLER_0_17_15
*1009 FILLER_0_17_151
*1010 FILLER_0_17_163
*1011 FILLER_0_17_167
*1012 FILLER_0_17_175
*1013 FILLER_0_17_187
*1014 FILLER_0_17_199
*1015 FILLER_0_17_207
*1016 FILLER_0_17_214
*1017 FILLER_0_17_220
*1018 FILLER_0_17_225
*1019 FILLER_0_17_23
*1020 FILLER_0_17_230
*1021 FILLER_0_17_242
*1022 FILLER_0_17_250
*1023 FILLER_0_17_258
*1024 FILLER_0_17_273
*1025 FILLER_0_17_279
*1026 FILLER_0_17_281
*1027 FILLER_0_17_289
*1028 FILLER_0_17_3
*1029 FILLER_0_17_301
*1030 FILLER_0_17_306
*1031 FILLER_0_17_314
*1032 FILLER_0_17_32
*1033 FILLER_0_17_321
*1034 FILLER_0_17_333
*1035 FILLER_0_17_337
*1036 FILLER_0_17_349
*1037 FILLER_0_17_39
*1038 FILLER_0_17_51
*1039 FILLER_0_17_55
*1040 FILLER_0_17_69
*1041 FILLER_0_17_81
*1042 FILLER_0_17_93
*1043 FILLER_0_18_114
*1044 FILLER_0_18_123
*1045 FILLER_0_18_132
*1046 FILLER_0_18_149
*1047 FILLER_0_18_15
*1048 FILLER_0_18_156
*1049 FILLER_0_18_173
*1050 FILLER_0_18_195
*1051 FILLER_0_18_250
*1052 FILLER_0_18_253
*1053 FILLER_0_18_261
*1054 FILLER_0_18_268
*1055 FILLER_0_18_27
*1056 FILLER_0_18_29
*1057 FILLER_0_18_296
*1058 FILLER_0_18_3
*1059 FILLER_0_18_307
*1060 FILLER_0_18_309
*1061 FILLER_0_18_326
*1062 FILLER_0_18_349
*1063 FILLER_0_18_46
*1064 FILLER_0_18_50
*1065 FILLER_0_18_57
*1066 FILLER_0_18_62
*1067 FILLER_0_18_66
*1068 FILLER_0_18_73
*1069 FILLER_0_18_83
*1070 FILLER_0_19_111
*1071 FILLER_0_19_113
*1072 FILLER_0_19_117
*1073 FILLER_0_19_124
*1074 FILLER_0_19_136
*1075 FILLER_0_19_15
*1076 FILLER_0_19_150
*1077 FILLER_0_19_162
*1078 FILLER_0_19_175
*1079 FILLER_0_19_187
*1080 FILLER_0_19_199
*1081 FILLER_0_19_205
*1082 FILLER_0_19_209
*1083 FILLER_0_19_213
*1084 FILLER_0_19_222
*1085 FILLER_0_19_225
*1086 FILLER_0_19_237
*1087 FILLER_0_19_249
*1088 FILLER_0_19_258
*1089 FILLER_0_19_265
*1090 FILLER_0_19_27
*1091 FILLER_0_19_281
*1092 FILLER_0_19_293
*1093 FILLER_0_19_299
*1094 FILLER_0_19_3
*1095 FILLER_0_19_311
*1096 FILLER_0_19_330
*1097 FILLER_0_19_337
*1098 FILLER_0_19_349
*1099 FILLER_0_19_39
*1100 FILLER_0_19_54
*1101 FILLER_0_19_57
*1102 FILLER_0_19_69
*1103 FILLER_0_19_82
*1104 FILLER_0_19_91
*1105 FILLER_0_19_99
*1106 FILLER_0_1_105
*1107 FILLER_0_1_111
*1108 FILLER_0_1_113
*1109 FILLER_0_1_125
*1110 FILLER_0_1_137
*1111 FILLER_0_1_149
*1112 FILLER_0_1_15
*1113 FILLER_0_1_161
*1114 FILLER_0_1_167
*1115 FILLER_0_1_169
*1116 FILLER_0_1_181
*1117 FILLER_0_1_193
*1118 FILLER_0_1_205
*1119 FILLER_0_1_217
*1120 FILLER_0_1_223
*1121 FILLER_0_1_225
*1122 FILLER_0_1_237
*1123 FILLER_0_1_249
*1124 FILLER_0_1_261
*1125 FILLER_0_1_27
*1126 FILLER_0_1_273
*1127 FILLER_0_1_279
*1128 FILLER_0_1_281
*1129 FILLER_0_1_293
*1130 FILLER_0_1_3
*1131 FILLER_0_1_305
*1132 FILLER_0_1_317
*1133 FILLER_0_1_329
*1134 FILLER_0_1_335
*1135 FILLER_0_1_337
*1136 FILLER_0_1_349
*1137 FILLER_0_1_39
*1138 FILLER_0_1_51
*1139 FILLER_0_1_55
*1140 FILLER_0_1_57
*1141 FILLER_0_1_69
*1142 FILLER_0_1_81
*1143 FILLER_0_1_93
*1144 FILLER_0_20_101
*1145 FILLER_0_20_113
*1146 FILLER_0_20_128
*1147 FILLER_0_20_132
*1148 FILLER_0_20_141
*1149 FILLER_0_20_149
*1150 FILLER_0_20_15
*1151 FILLER_0_20_157
*1152 FILLER_0_20_172
*1153 FILLER_0_20_179
*1154 FILLER_0_20_193
*1155 FILLER_0_20_207
*1156 FILLER_0_20_211
*1157 FILLER_0_20_227
*1158 FILLER_0_20_249
*1159 FILLER_0_20_253
*1160 FILLER_0_20_261
*1161 FILLER_0_20_269
*1162 FILLER_0_20_27
*1163 FILLER_0_20_276
*1164 FILLER_0_20_282
*1165 FILLER_0_20_3
*1166 FILLER_0_20_303
*1167 FILLER_0_20_307
*1168 FILLER_0_20_320
*1169 FILLER_0_20_332
*1170 FILLER_0_20_61
*1171 FILLER_0_20_73
*1172 FILLER_0_20_82
*1173 FILLER_0_20_85
*1174 FILLER_0_20_93
*1175 FILLER_0_21_103
*1176 FILLER_0_21_128
*1177 FILLER_0_21_136
*1178 FILLER_0_21_145
*1179 FILLER_0_21_15
*1180 FILLER_0_21_157
*1181 FILLER_0_21_161
*1182 FILLER_0_21_177
*1183 FILLER_0_21_183
*1184 FILLER_0_21_192
*1185 FILLER_0_21_196
*1186 FILLER_0_21_203
*1187 FILLER_0_21_211
*1188 FILLER_0_21_225
*1189 FILLER_0_21_237
*1190 FILLER_0_21_243
*1191 FILLER_0_21_252
*1192 FILLER_0_21_256
*1193 FILLER_0_21_268
*1194 FILLER_0_21_27
*1195 FILLER_0_21_281
*1196 FILLER_0_21_289
*1197 FILLER_0_21_296
*1198 FILLER_0_21_3
*1199 FILLER_0_21_308
*1200 FILLER_0_21_328
*1201 FILLER_0_21_332
*1202 FILLER_0_21_337
*1203 FILLER_0_21_349
*1204 FILLER_0_21_44
*1205 FILLER_0_21_64
*1206 FILLER_0_21_72
*1207 FILLER_0_21_77
*1208 FILLER_0_21_88
*1209 FILLER_0_22_108
*1210 FILLER_0_22_114
*1211 FILLER_0_22_118
*1212 FILLER_0_22_122
*1213 FILLER_0_22_128
*1214 FILLER_0_22_141
*1215 FILLER_0_22_149
*1216 FILLER_0_22_155
*1217 FILLER_0_22_167
*1218 FILLER_0_22_175
*1219 FILLER_0_22_185
*1220 FILLER_0_22_195
*1221 FILLER_0_22_197
*1222 FILLER_0_22_209
*1223 FILLER_0_22_221
*1224 FILLER_0_22_230
*1225 FILLER_0_22_247
*1226 FILLER_0_22_251
*1227 FILLER_0_22_253
*1228 FILLER_0_22_267
*1229 FILLER_0_22_275
*1230 FILLER_0_22_290
*1231 FILLER_0_22_298
*1232 FILLER_0_22_3
*1233 FILLER_0_22_303
*1234 FILLER_0_22_307
*1235 FILLER_0_22_309
*1236 FILLER_0_22_328
*1237 FILLER_0_22_348
*1238 FILLER_0_22_37
*1239 FILLER_0_22_46
*1240 FILLER_0_22_54
*1241 FILLER_0_22_68
*1242 FILLER_0_22_80
*1243 FILLER_0_22_92
*1244 FILLER_0_22_98
*1245 FILLER_0_23_104
*1246 FILLER_0_23_113
*1247 FILLER_0_23_127
*1248 FILLER_0_23_140
*1249 FILLER_0_23_15
*1250 FILLER_0_23_151
*1251 FILLER_0_23_160
*1252 FILLER_0_23_169
*1253 FILLER_0_23_194
*1254 FILLER_0_23_211
*1255 FILLER_0_23_222
*1256 FILLER_0_23_233
*1257 FILLER_0_23_274
*1258 FILLER_0_23_281
*1259 FILLER_0_23_3
*1260 FILLER_0_23_308
*1261 FILLER_0_23_320
*1262 FILLER_0_23_326
*1263 FILLER_0_23_334
*1264 FILLER_0_23_337
*1265 FILLER_0_23_349
*1266 FILLER_0_23_41
*1267 FILLER_0_23_49
*1268 FILLER_0_23_68
*1269 FILLER_0_23_76
*1270 FILLER_0_23_81
*1271 FILLER_0_23_93
*1272 FILLER_0_24_109
*1273 FILLER_0_24_118
*1274 FILLER_0_24_130
*1275 FILLER_0_24_138
*1276 FILLER_0_24_147
*1277 FILLER_0_24_15
*1278 FILLER_0_24_159
*1279 FILLER_0_24_163
*1280 FILLER_0_24_171
*1281 FILLER_0_24_183
*1282 FILLER_0_24_190
*1283 FILLER_0_24_211
*1284 FILLER_0_24_228
*1285 FILLER_0_24_236
*1286 FILLER_0_24_243
*1287 FILLER_0_24_251
*1288 FILLER_0_24_269
*1289 FILLER_0_24_27
*1290 FILLER_0_24_273
*1291 FILLER_0_24_279
*1292 FILLER_0_24_286
*1293 FILLER_0_24_29
*1294 FILLER_0_24_298
*1295 FILLER_0_24_3
*1296 FILLER_0_24_306
*1297 FILLER_0_24_309
*1298 FILLER_0_24_321
*1299 FILLER_0_24_329
*1300 FILLER_0_24_346
*1301 FILLER_0_24_350
*1302 FILLER_0_24_45
*1303 FILLER_0_24_50
*1304 FILLER_0_24_62
*1305 FILLER_0_24_70
*1306 FILLER_0_24_85
*1307 FILLER_0_24_99
*1308 FILLER_0_25_105
*1309 FILLER_0_25_110
*1310 FILLER_0_25_113
*1311 FILLER_0_25_117
*1312 FILLER_0_25_125
*1313 FILLER_0_25_129
*1314 FILLER_0_25_142
*1315 FILLER_0_25_15
*1316 FILLER_0_25_153
*1317 FILLER_0_25_163
*1318 FILLER_0_25_167
*1319 FILLER_0_25_187
*1320 FILLER_0_25_191
*1321 FILLER_0_25_197
*1322 FILLER_0_25_209
*1323 FILLER_0_25_221
*1324 FILLER_0_25_225
*1325 FILLER_0_25_248
*1326 FILLER_0_25_256
*1327 FILLER_0_25_261
*1328 FILLER_0_25_27
*1329 FILLER_0_25_278
*1330 FILLER_0_25_281
*1331 FILLER_0_25_3
*1332 FILLER_0_25_300
*1333 FILLER_0_25_306
*1334 FILLER_0_25_315
*1335 FILLER_0_25_330
*1336 FILLER_0_25_337
*1337 FILLER_0_25_349
*1338 FILLER_0_25_61
*1339 FILLER_0_25_72
*1340 FILLER_0_25_80
*1341 FILLER_0_25_91
*1342 FILLER_0_25_97
*1343 FILLER_0_26_123
*1344 FILLER_0_26_135
*1345 FILLER_0_26_139
*1346 FILLER_0_26_148
*1347 FILLER_0_26_15
*1348 FILLER_0_26_156
*1349 FILLER_0_26_168
*1350 FILLER_0_26_176
*1351 FILLER_0_26_180
*1352 FILLER_0_26_188
*1353 FILLER_0_26_204
*1354 FILLER_0_26_221
*1355 FILLER_0_26_228
*1356 FILLER_0_26_240
*1357 FILLER_0_26_248
*1358 FILLER_0_26_269
*1359 FILLER_0_26_27
*1360 FILLER_0_26_281
*1361 FILLER_0_26_289
*1362 FILLER_0_26_296
*1363 FILLER_0_26_3
*1364 FILLER_0_26_309
*1365 FILLER_0_26_321
*1366 FILLER_0_26_333
*1367 FILLER_0_26_345
*1368 FILLER_0_26_56
*1369 FILLER_0_26_65
*1370 FILLER_0_26_69
*1371 FILLER_0_26_80
*1372 FILLER_0_26_99
*1373 FILLER_0_27_111
*1374 FILLER_0_27_129
*1375 FILLER_0_27_15
*1376 FILLER_0_27_152
*1377 FILLER_0_27_160
*1378 FILLER_0_27_169
*1379 FILLER_0_27_173
*1380 FILLER_0_27_190
*1381 FILLER_0_27_203
*1382 FILLER_0_27_223
*1383 FILLER_0_27_225
*1384 FILLER_0_27_233
*1385 FILLER_0_27_251
*1386 FILLER_0_27_264
*1387 FILLER_0_27_27
*1388 FILLER_0_27_276
*1389 FILLER_0_27_281
*1390 FILLER_0_27_3
*1391 FILLER_0_27_305
*1392 FILLER_0_27_337
*1393 FILLER_0_27_349
*1394 FILLER_0_27_39
*1395 FILLER_0_27_50
*1396 FILLER_0_27_62
*1397 FILLER_0_27_66
*1398 FILLER_0_27_70
*1399 FILLER_0_27_82
*1400 FILLER_0_27_94
*1401 FILLER_0_28_105
*1402 FILLER_0_28_147
*1403 FILLER_0_28_15
*1404 FILLER_0_28_155
*1405 FILLER_0_28_169
*1406 FILLER_0_28_180
*1407 FILLER_0_28_192
*1408 FILLER_0_28_250
*1409 FILLER_0_28_253
*1410 FILLER_0_28_257
*1411 FILLER_0_28_27
*1412 FILLER_0_28_274
*1413 FILLER_0_28_29
*1414 FILLER_0_28_290
*1415 FILLER_0_28_297
*1416 FILLER_0_28_3
*1417 FILLER_0_28_305
*1418 FILLER_0_28_321
*1419 FILLER_0_28_327
*1420 FILLER_0_28_349
*1421 FILLER_0_28_41
*1422 FILLER_0_28_61
*1423 FILLER_0_29_102
*1424 FILLER_0_29_110
*1425 FILLER_0_29_113
*1426 FILLER_0_29_117
*1427 FILLER_0_29_123
*1428 FILLER_0_29_130
*1429 FILLER_0_29_142
*1430 FILLER_0_29_15
*1431 FILLER_0_29_154
*1432 FILLER_0_29_160
*1433 FILLER_0_29_169
*1434 FILLER_0_29_192
*1435 FILLER_0_29_196
*1436 FILLER_0_29_222
*1437 FILLER_0_29_235
*1438 FILLER_0_29_242
*1439 FILLER_0_29_254
*1440 FILLER_0_29_260
*1441 FILLER_0_29_27
*1442 FILLER_0_29_275
*1443 FILLER_0_29_279
*1444 FILLER_0_29_281
*1445 FILLER_0_29_287
*1446 FILLER_0_29_291
*1447 FILLER_0_29_3
*1448 FILLER_0_29_300
*1449 FILLER_0_29_308
*1450 FILLER_0_29_317
*1451 FILLER_0_29_337
*1452 FILLER_0_29_349
*1453 FILLER_0_29_39
*1454 FILLER_0_29_51
*1455 FILLER_0_29_55
*1456 FILLER_0_29_57
*1457 FILLER_0_29_65
*1458 FILLER_0_29_77
*1459 FILLER_0_29_85
*1460 FILLER_0_29_90
*1461 FILLER_0_2_109
*1462 FILLER_0_2_121
*1463 FILLER_0_2_133
*1464 FILLER_0_2_139
*1465 FILLER_0_2_141
*1466 FILLER_0_2_15
*1467 FILLER_0_2_153
*1468 FILLER_0_2_165
*1469 FILLER_0_2_177
*1470 FILLER_0_2_189
*1471 FILLER_0_2_195
*1472 FILLER_0_2_197
*1473 FILLER_0_2_209
*1474 FILLER_0_2_221
*1475 FILLER_0_2_233
*1476 FILLER_0_2_245
*1477 FILLER_0_2_251
*1478 FILLER_0_2_253
*1479 FILLER_0_2_265
*1480 FILLER_0_2_27
*1481 FILLER_0_2_277
*1482 FILLER_0_2_289
*1483 FILLER_0_2_29
*1484 FILLER_0_2_3
*1485 FILLER_0_2_301
*1486 FILLER_0_2_307
*1487 FILLER_0_2_309
*1488 FILLER_0_2_321
*1489 FILLER_0_2_333
*1490 FILLER_0_2_345
*1491 FILLER_0_2_41
*1492 FILLER_0_2_53
*1493 FILLER_0_2_65
*1494 FILLER_0_2_77
*1495 FILLER_0_2_83
*1496 FILLER_0_2_85
*1497 FILLER_0_2_97
*1498 FILLER_0_30_128
*1499 FILLER_0_30_134
*1500 FILLER_0_30_15
*1501 FILLER_0_30_162
*1502 FILLER_0_30_166
*1503 FILLER_0_30_175
*1504 FILLER_0_30_186
*1505 FILLER_0_30_197
*1506 FILLER_0_30_208
*1507 FILLER_0_30_215
*1508 FILLER_0_30_224
*1509 FILLER_0_30_245
*1510 FILLER_0_30_261
*1511 FILLER_0_30_27
*1512 FILLER_0_30_277
*1513 FILLER_0_30_29
*1514 FILLER_0_30_3
*1515 FILLER_0_30_309
*1516 FILLER_0_30_321
*1517 FILLER_0_30_329
*1518 FILLER_0_30_347
*1519 FILLER_0_30_41
*1520 FILLER_0_30_53
*1521 FILLER_0_30_65
*1522 FILLER_0_30_88
*1523 FILLER_0_31_105
*1524 FILLER_0_31_111
*1525 FILLER_0_31_121
*1526 FILLER_0_31_133
*1527 FILLER_0_31_141
*1528 FILLER_0_31_149
*1529 FILLER_0_31_15
*1530 FILLER_0_31_164
*1531 FILLER_0_31_175
*1532 FILLER_0_31_196
*1533 FILLER_0_31_208
*1534 FILLER_0_31_216
*1535 FILLER_0_31_232
*1536 FILLER_0_31_256
*1537 FILLER_0_31_263
*1538 FILLER_0_31_27
*1539 FILLER_0_31_271
*1540 FILLER_0_31_277
*1541 FILLER_0_31_281
*1542 FILLER_0_31_291
*1543 FILLER_0_31_3
*1544 FILLER_0_31_302
*1545 FILLER_0_31_306
*1546 FILLER_0_31_313
*1547 FILLER_0_31_321
*1548 FILLER_0_31_333
*1549 FILLER_0_31_337
*1550 FILLER_0_31_349
*1551 FILLER_0_31_39
*1552 FILLER_0_31_51
*1553 FILLER_0_31_55
*1554 FILLER_0_31_57
*1555 FILLER_0_31_69
*1556 FILLER_0_31_81
*1557 FILLER_0_31_89
*1558 FILLER_0_31_93
*1559 FILLER_0_32_119
*1560 FILLER_0_32_123
*1561 FILLER_0_32_135
*1562 FILLER_0_32_139
*1563 FILLER_0_32_146
*1564 FILLER_0_32_15
*1565 FILLER_0_32_158
*1566 FILLER_0_32_164
*1567 FILLER_0_32_171
*1568 FILLER_0_32_183
*1569 FILLER_0_32_187
*1570 FILLER_0_32_191
*1571 FILLER_0_32_195
*1572 FILLER_0_32_197
*1573 FILLER_0_32_218
*1574 FILLER_0_32_222
*1575 FILLER_0_32_246
*1576 FILLER_0_32_27
*1577 FILLER_0_32_29
*1578 FILLER_0_32_3
*1579 FILLER_0_32_309
*1580 FILLER_0_32_321
*1581 FILLER_0_32_333
*1582 FILLER_0_32_345
*1583 FILLER_0_32_41
*1584 FILLER_0_32_53
*1585 FILLER_0_32_65
*1586 FILLER_0_32_77
*1587 FILLER_0_32_83
*1588 FILLER_0_32_85
*1589 FILLER_0_33_100
*1590 FILLER_0_33_104
*1591 FILLER_0_33_126
*1592 FILLER_0_33_134
*1593 FILLER_0_33_15
*1594 FILLER_0_33_165
*1595 FILLER_0_33_180
*1596 FILLER_0_33_217
*1597 FILLER_0_33_225
*1598 FILLER_0_33_251
*1599 FILLER_0_33_263
*1600 FILLER_0_33_267
*1601 FILLER_0_33_27
*1602 FILLER_0_33_272
*1603 FILLER_0_33_277
*1604 FILLER_0_33_289
*1605 FILLER_0_33_3
*1606 FILLER_0_33_301
*1607 FILLER_0_33_326
*1608 FILLER_0_33_334
*1609 FILLER_0_33_337
*1610 FILLER_0_33_349
*1611 FILLER_0_33_39
*1612 FILLER_0_33_51
*1613 FILLER_0_33_55
*1614 FILLER_0_33_57
*1615 FILLER_0_33_69
*1616 FILLER_0_33_81
*1617 FILLER_0_34_109
*1618 FILLER_0_34_124
*1619 FILLER_0_34_131
*1620 FILLER_0_34_141
*1621 FILLER_0_34_15
*1622 FILLER_0_34_161
*1623 FILLER_0_34_169
*1624 FILLER_0_34_181
*1625 FILLER_0_34_193
*1626 FILLER_0_34_197
*1627 FILLER_0_34_234
*1628 FILLER_0_34_247
*1629 FILLER_0_34_251
*1630 FILLER_0_34_253
*1631 FILLER_0_34_266
*1632 FILLER_0_34_27
*1633 FILLER_0_34_284
*1634 FILLER_0_34_29
*1635 FILLER_0_34_292
*1636 FILLER_0_34_3
*1637 FILLER_0_34_302
*1638 FILLER_0_34_312
*1639 FILLER_0_34_324
*1640 FILLER_0_34_336
*1641 FILLER_0_34_348
*1642 FILLER_0_34_41
*1643 FILLER_0_34_53
*1644 FILLER_0_34_65
*1645 FILLER_0_34_77
*1646 FILLER_0_34_83
*1647 FILLER_0_34_85
*1648 FILLER_0_34_97
*1649 FILLER_0_35_126
*1650 FILLER_0_35_137
*1651 FILLER_0_35_144
*1652 FILLER_0_35_15
*1653 FILLER_0_35_156
*1654 FILLER_0_35_164
*1655 FILLER_0_35_194
*1656 FILLER_0_35_203
*1657 FILLER_0_35_215
*1658 FILLER_0_35_223
*1659 FILLER_0_35_225