*SPEF "ieee 1481-1999"
*DESIGN "tt_um_darkfsegura_collatz"
*DATE "11:11:11 Fri 11 11, 1111"
*VENDOR "OpenRCX"
*PROGRAM "Parallel Extraction"
*VERSION "1.0"
*DESIGN_FLOW "NAME_SCOPE LOCAL" "PIN_CAP NONE"
*DIVIDER /
*DELIMITER :
*BUS_DELIMITER []
*T_UNIT 1 NS
*C_UNIT 1 PF
*R_UNIT 1 OHM
*L_UNIT 1 HENRY

*NAME_MAP
*3 clk
*4 ena
*5 rst_n
*6 ui_in[0]
*7 ui_in[1]
*8 ui_in[2]
*9 ui_in[3]
*10 ui_in[4]
*11 ui_in[5]
*12 ui_in[6]
*13 ui_in[7]
*14 uio_in[0]
*15 uio_in[1]
*16 uio_in[2]
*17 uio_in[3]
*18 uio_in[4]
*19 uio_in[5]
*20 uio_in[6]
*21 uio_in[7]
*22 net10
*23 net11
*24 net12
*25 net13
*26 net14
*27 net15
*28 net16
*29 net17
*30 net18
*31 net19
*32 net20
*33 net21
*34 net22
*35 net23
*36 net24
*37 net25
*38 uo_out[0]
*39 uo_out[1]
*40 uo_out[2]
*41 uo_out[3]
*42 uo_out[4]
*43 uo_out[5]
*44 uo_out[6]
*45 uo_out[7]
*46 SC_STATEMACHINE_u0\.State_Register\[0\]
*47 SC_STATEMACHINE_u0\.State_Register\[1\]
*48 SC_STATEMACHINE_u0\.State_Register\[2\]
*49 SC_STATEMACHINE_u0\.State_Register\[3\]
*50 SC_STATEMACHINE_u0\.State_Register\[4\]
*51 SC_STATEMACHINE_u0\.State_Signal\[0\]
*52 SC_STATEMACHINE_u0\.State_Signal\[1\]
*53 SC_STATEMACHINE_u0\.State_Signal\[2\]
*54 SC_STATEMACHINE_u0\.State_Signal\[3\]
*55 SC_STATEMACHINE_u0\.State_Signal\[4\]
*56 _000_
*57 _001_
*58 _002_
*59 _003_
*60 _004_
*61 _005_
*62 _006_
*63 _007_
*64 _008_
*65 _009_
*66 _010_
*67 _011_
*68 _012_
*69 _013_
*70 _014_
*71 _015_
*72 _016_
*73 _017_
*74 _018_
*75 _019_
*76 _020_
*77 _021_
*78 _022_
*79 _023_
*80 _024_
*81 _025_
*82 _026_
*83 _027_
*84 _028_
*85 _029_
*86 _030_
*87 _031_
*88 _032_
*89 _033_
*90 _034_
*91 _035_
*92 _036_
*93 _037_
*94 _038_
*95 _039_
*96 _040_
*97 _041_
*98 _042_
*99 _043_
*100 _044_
*101 _045_
*102 _046_
*103 _047_
*104 _048_
*105 _049_
*106 _050_
*107 _051_
*108 _052_
*109 _053_
*110 _054_
*111 _055_
*112 _056_
*113 _057_
*114 _058_
*115 _059_
*116 _060_
*117 _061_
*118 _062_
*119 _063_
*120 _064_
*121 _065_
*122 _066_
*123 _067_
*124 _068_
*125 _069_
*126 _070_
*127 _071_
*128 _072_
*129 _073_
*130 _074_
*131 _075_
*132 _076_
*133 _077_
*134 _078_
*135 _079_
*136 _080_
*137 _081_
*138 _082_
*139 _083_
*140 _084_
*141 _085_
*142 _086_
*143 _087_
*144 _088_
*145 _089_
*146 _090_
*147 _091_
*148 _092_
*149 _093_
*150 _094_
*151 _095_
*152 _096_
*153 _097_
*154 _098_
*155 _099_
*156 _100_
*157 _101_
*158 _102_
*159 _103_
*160 _104_
*161 _105_
*162 _106_
*163 _107_
*164 _108_
*165 _109_
*166 _110_
*167 _111_
*168 _112_
*169 _113_
*170 _114_
*171 _115_
*172 _116_
*173 _117_
*174 _118_
*175 _119_
*176 _120_
*177 _121_
*178 _122_
*179 _123_
*180 _124_
*181 _125_
*182 _126_
*183 _127_
*184 _128_
*185 _129_
*186 _130_
*187 _131_
*188 _132_
*189 _133_
*190 _134_
*191 _135_
*192 _136_
*193 _137_
*194 _138_
*195 _139_
*196 _140_
*197 _141_
*198 _142_
*199 _143_
*200 _144_
*201 _145_
*202 _146_
*203 _147_
*204 _148_
*205 _149_
*206 _150_
*207 _151_
*208 _152_
*209 _153_
*210 _154_
*211 _155_
*212 _156_
*213 _157_
*214 _158_
*215 _159_
*216 _160_
*217 _161_
*218 _162_
*219 _163_
*220 _164_
*221 _165_
*222 _166_
*223 _167_
*224 _168_
*225 _169_
*226 _170_
*227 _171_
*228 _172_
*229 _173_
*230 _174_
*231 _175_
*232 _176_
*233 _177_
*234 _178_
*235 _179_
*236 _180_
*237 _181_
*238 _182_
*239 _183_
*240 _184_
*241 _185_
*242 _186_
*243 _187_
*244 _188_
*245 _189_
*246 _190_
*247 _191_
*248 _192_
*249 _193_
*250 _194_
*251 _195_
*252 _196_
*253 _197_
*254 _198_
*255 _199_
*256 _200_
*257 _201_
*258 _202_
*259 _203_
*260 _204_
*261 _205_
*262 _206_
*263 _207_
*264 _208_
*265 _209_
*266 _210_
*267 _211_
*268 _212_
*269 _213_
*270 _214_
*271 _215_
*272 _216_
*273 _217_
*274 _218_
*275 _219_
*276 _220_
*277 _221_
*278 _222_
*279 _223_
*280 _224_
*281 _225_
*282 _226_
*283 _227_
*284 _228_
*285 _229_
*286 _230_
*287 _231_
*288 _232_
*289 _233_
*290 _234_
*291 _235_
*292 _236_
*293 _237_
*294 _238_
*295 _239_
*296 _240_
*297 _241_
*298 _242_
*299 _243_
*300 _244_
*301 _245_
*302 _246_
*303 _247_
*304 _248_
*305 _249_
*306 _250_
*307 _251_
*308 _252_
*309 _253_
*310 _254_
*311 _255_
*312 _256_
*313 _257_
*314 _258_
*315 _259_
*316 _260_
*317 _261_
*318 _262_
*319 _263_
*320 _264_
*321 _265_
*322 _266_
*323 _267_
*324 _268_
*325 _269_
*326 _270_
*327 _271_
*328 _272_
*329 _273_
*330 _274_
*331 _275_
*332 _276_
*333 _277_
*334 _278_
*335 _279_
*336 _280_
*337 _281_
*338 _282_
*339 _283_
*340 _284_
*341 _285_
*342 _286_
*343 _287_
*344 _288_
*345 _289_
*346 _290_
*347 _291_
*348 _292_
*349 _293_
*350 _294_
*351 _295_
*352 _296_
*353 _297_
*354 _298_
*355 _299_
*356 _300_
*357 _301_
*358 _302_
*359 _303_
*360 _304_
*361 _305_
*362 _306_
*363 _307_
*364 _308_
*365 _309_
*366 _310_
*367 _311_
*368 _312_
*369 _313_
*370 _314_
*371 _315_
*372 _316_
*373 _317_
*374 _318_
*375 _319_
*376 _320_
*377 _321_
*378 _322_
*379 _323_
*380 _324_
*381 _325_
*382 _326_
*383 _327_
*384 _328_
*385 _329_
*386 _330_
*387 _331_
*388 _332_
*389 _333_
*390 _334_
*391 _335_
*392 _336_
*393 _337_
*394 _338_
*395 clknet_0_clk
*396 clknet_2_0__leaf_clk
*397 clknet_2_1__leaf_clk
*398 clknet_2_2__leaf_clk
*399 clknet_2_3__leaf_clk
*400 net1
*401 net2
*402 net26
*403 net27
*404 net28
*405 net29
*406 net3
*407 net30
*408 net31
*409 net32
*410 net33
*411 net34
*412 net35
*413 net36
*414 net37
*415 net38
*416 net39
*417 net4
*418 net40
*419 net41
*420 net42
*421 net43
*422 net44
*423 net45
*424 net46
*425 net47
*426 net5
*427 net6
*428 net7
*429 net8
*430 net9
*431 uDATAPATH_u0\.CC_MUXX_u0\.CC_MUX_data0_InBUS\[0\]
*432 uDATAPATH_u0\.CC_MUXX_u0\.CC_MUX_data0_InBUS\[1\]
*433 uDATAPATH_u0\.CC_MUXX_u0\.CC_MUX_data0_InBUS\[2\]
*434 uDATAPATH_u0\.CC_MUXX_u0\.CC_MUX_data0_InBUS\[3\]
*435 uDATAPATH_u0\.CC_MUXX_u0\.CC_MUX_data0_InBUS\[4\]
*436 uDATAPATH_u0\.CC_MUXX_u0\.CC_MUX_data0_InBUS\[5\]
*437 uDATAPATH_u0\.CC_MUXX_u0\.CC_MUX_data0_InBUS\[6\]
*438 uDATAPATH_u0\.CC_MUXX_u0\.CC_MUX_data0_InBUS\[7\]
*439 uDATAPATH_u0\.CC_MUXX_u0\.CC_MUX_data1_InBUS\[0\]
*440 uDATAPATH_u0\.CC_MUXX_u0\.CC_MUX_data1_InBUS\[1\]
*441 uDATAPATH_u0\.CC_MUXX_u0\.CC_MUX_data1_InBUS\[2\]
*442 uDATAPATH_u0\.CC_MUXX_u0\.CC_MUX_data1_InBUS\[3\]
*443 uDATAPATH_u0\.CC_MUXX_u0\.CC_MUX_data1_InBUS\[4\]
*444 uDATAPATH_u0\.CC_MUXX_u0\.CC_MUX_data1_InBUS\[5\]
*445 uDATAPATH_u0\.CC_MUXX_u0\.CC_MUX_data1_InBUS\[6\]
*446 uDATAPATH_u0\.CC_MUXX_u0\.CC_MUX_data1_InBUS\[7\]
*447 uDATAPATH_u0\.CC_MUXX_u0\.CC_MUX_data2_InBUS\[0\]
*448 uDATAPATH_u0\.CC_MUXX_u0\.CC_MUX_data2_InBUS\[1\]
*449 uDATAPATH_u0\.CC_MUXX_u0\.CC_MUX_data2_InBUS\[2\]
*450 uDATAPATH_u0\.CC_MUXX_u0\.CC_MUX_data2_InBUS\[3\]
*451 uDATAPATH_u0\.CC_MUXX_u0\.CC_MUX_data2_InBUS\[4\]
*452 uDATAPATH_u0\.CC_MUXX_u0\.CC_MUX_data2_InBUS\[5\]
*453 uDATAPATH_u0\.CC_MUXX_u0\.CC_MUX_data2_InBUS\[6\]
*454 uDATAPATH_u0\.CC_MUXX_u0\.CC_MUX_data2_InBUS\[7\]
*455 uDATAPATH_u0\.CC_MUXX_u0\.CC_MUX_data4_InBUS\[0\]
*456 uDATAPATH_u0\.CC_MUXX_u0\.CC_MUX_data4_InBUS\[1\]
*457 uDATAPATH_u0\.CC_MUXX_u0\.CC_MUX_data4_InBUS\[2\]
*458 uDATAPATH_u0\.CC_MUXX_u0\.CC_MUX_data4_InBUS\[3\]
*459 uDATAPATH_u0\.CC_MUXX_u0\.CC_MUX_data4_InBUS\[4\]
*460 uDATAPATH_u0\.CC_MUXX_u0\.CC_MUX_data4_InBUS\[5\]
*461 uDATAPATH_u0\.CC_MUXX_u0\.CC_MUX_data4_InBUS\[6\]
*462 uDATAPATH_u0\.CC_MUXX_u0\.CC_MUX_data4_InBUS\[7\]
*463 uDATAPATH_u0\.RegSHIFTER_2_RegGENERAL_dataC_wireBUS\[0\]
*464 uDATAPATH_u0\.RegSHIFTER_2_RegGENERAL_dataC_wireBUS\[1\]
*465 uDATAPATH_u0\.RegSHIFTER_2_RegGENERAL_dataC_wireBUS\[2\]
*466 uDATAPATH_u0\.RegSHIFTER_2_RegGENERAL_dataC_wireBUS\[3\]
*467 uDATAPATH_u0\.RegSHIFTER_2_RegGENERAL_dataC_wireBUS\[4\]
*468 uDATAPATH_u0\.RegSHIFTER_2_RegGENERAL_dataC_wireBUS\[5\]
*469 uDATAPATH_u0\.RegSHIFTER_2_RegGENERAL_dataC_wireBUS\[6\]
*470 uDATAPATH_u0\.RegSHIFTER_2_RegGENERAL_dataC_wireBUS\[7\]
*471 FILLER_0_0_109
*472 FILLER_0_0_113
*473 FILLER_0_0_125
*474 FILLER_0_0_137
*475 FILLER_0_0_141
*476 FILLER_0_0_15
*477 FILLER_0_0_153
*478 FILLER_0_0_165
*479 FILLER_0_0_169
*480 FILLER_0_0_181
*481 FILLER_0_0_193
*482 FILLER_0_0_197
*483 FILLER_0_0_209
*484 FILLER_0_0_221
*485 FILLER_0_0_225
*486 FILLER_0_0_237
*487 FILLER_0_0_249
*488 FILLER_0_0_253
*489 FILLER_0_0_265
*490 FILLER_0_0_27
*491 FILLER_0_0_277
*492 FILLER_0_0_281
*493 FILLER_0_0_29
*494 FILLER_0_0_293
*495 FILLER_0_0_3
*496 FILLER_0_0_305
*497 FILLER_0_0_309
*498 FILLER_0_0_321
*499 FILLER_0_0_333
*500 FILLER_0_0_337
*501 FILLER_0_0_349
*502 FILLER_0_0_41
*503 FILLER_0_0_53
*504 FILLER_0_0_57
*505 FILLER_0_0_69
*506 FILLER_0_0_81
*507 FILLER_0_0_85
*508 FILLER_0_0_97
*509 FILLER_0_10_109
*510 FILLER_0_10_121
*511 FILLER_0_10_133
*512 FILLER_0_10_139
*513 FILLER_0_10_141
*514 FILLER_0_10_15
*515 FILLER_0_10_153
*516 FILLER_0_10_165
*517 FILLER_0_10_177
*518 FILLER_0_10_189
*519 FILLER_0_10_195
*520 FILLER_0_10_197
*521 FILLER_0_10_209
*522 FILLER_0_10_221
*523 FILLER_0_10_233
*524 FILLER_0_10_245
*525 FILLER_0_10_251
*526 FILLER_0_10_253
*527 FILLER_0_10_265
*528 FILLER_0_10_27
*529 FILLER_0_10_277
*530 FILLER_0_10_289
*531 FILLER_0_10_29
*532 FILLER_0_10_3
*533 FILLER_0_10_301
*534 FILLER_0_10_307
*535 FILLER_0_10_309
*536 FILLER_0_10_321
*537 FILLER_0_10_333
*538 FILLER_0_10_345
*539 FILLER_0_10_41
*540 FILLER_0_10_53
*541 FILLER_0_10_65
*542 FILLER_0_10_77
*543 FILLER_0_10_83
*544 FILLER_0_10_85
*545 FILLER_0_10_97
*546 FILLER_0_11_105
*547 FILLER_0_11_111
*548 FILLER_0_11_113
*549 FILLER_0_11_125
*550 FILLER_0_11_137
*551 FILLER_0_11_149
*552 FILLER_0_11_15
*553 FILLER_0_11_161
*554 FILLER_0_11_167
*555 FILLER_0_11_169
*556 FILLER_0_11_181
*557 FILLER_0_11_193
*558 FILLER_0_11_205
*559 FILLER_0_11_217
*560 FILLER_0_11_223
*561 FILLER_0_11_225
*562 FILLER_0_11_237
*563 FILLER_0_11_249
*564 FILLER_0_11_261
*565 FILLER_0_11_27
*566 FILLER_0_11_273
*567 FILLER_0_11_279
*568 FILLER_0_11_281
*569 FILLER_0_11_293
*570 FILLER_0_11_3
*571 FILLER_0_11_305
*572 FILLER_0_11_317
*573 FILLER_0_11_329
*574 FILLER_0_11_335
*575 FILLER_0_11_337
*576 FILLER_0_11_349
*577 FILLER_0_11_39
*578 FILLER_0_11_51
*579 FILLER_0_11_55
*580 FILLER_0_11_57
*581 FILLER_0_11_69
*582 FILLER_0_11_81
*583 FILLER_0_11_93
*584 FILLER_0_12_109
*585 FILLER_0_12_121
*586 FILLER_0_12_133
*587 FILLER_0_12_139
*588 FILLER_0_12_141
*589 FILLER_0_12_15
*590 FILLER_0_12_153
*591 FILLER_0_12_165
*592 FILLER_0_12_177
*593 FILLER_0_12_189
*594 FILLER_0_12_195
*595 FILLER_0_12_197
*596 FILLER_0_12_209
*597 FILLER_0_12_221
*598 FILLER_0_12_233
*599 FILLER_0_12_245
*600 FILLER_0_12_251
*601 FILLER_0_12_253
*602 FILLER_0_12_265
*603 FILLER_0_12_27
*604 FILLER_0_12_277
*605 FILLER_0_12_289
*606 FILLER_0_12_29
*607 FILLER_0_12_3
*608 FILLER_0_12_301
*609 FILLER_0_12_307
*610 FILLER_0_12_309
*611 FILLER_0_12_321
*612 FILLER_0_12_333
*613 FILLER_0_12_345
*614 FILLER_0_12_41
*615 FILLER_0_12_53
*616 FILLER_0_12_65
*617 FILLER_0_12_77
*618 FILLER_0_12_83
*619 FILLER_0_12_85
*620 FILLER_0_12_97
*621 FILLER_0_13_105
*622 FILLER_0_13_111
*623 FILLER_0_13_113
*624 FILLER_0_13_125
*625 FILLER_0_13_137
*626 FILLER_0_13_149
*627 FILLER_0_13_15
*628 FILLER_0_13_161
*629 FILLER_0_13_167
*630 FILLER_0_13_169
*631 FILLER_0_13_181
*632 FILLER_0_13_193
*633 FILLER_0_13_205
*634 FILLER_0_13_217
*635 FILLER_0_13_223
*636 FILLER_0_13_225
*637 FILLER_0_13_237
*638 FILLER_0_13_249
*639 FILLER_0_13_261
*640 FILLER_0_13_27
*641 FILLER_0_13_273
*642 FILLER_0_13_279
*643 FILLER_0_13_281
*644 FILLER_0_13_293
*645 FILLER_0_13_3
*646 FILLER_0_13_305
*647 FILLER_0_13_317
*648 FILLER_0_13_329
*649 FILLER_0_13_335
*650 FILLER_0_13_337
*651 FILLER_0_13_349
*652 FILLER_0_13_39
*653 FILLER_0_13_51
*654 FILLER_0_13_55
*655 FILLER_0_13_57
*656 FILLER_0_13_69
*657 FILLER_0_13_81
*658 FILLER_0_13_93
*659 FILLER_0_14_109
*660 FILLER_0_14_121
*661 FILLER_0_14_133
*662 FILLER_0_14_139
*663 FILLER_0_14_141
*664 FILLER_0_14_15
*665 FILLER_0_14_153
*666 FILLER_0_14_165
*667 FILLER_0_14_177
*668 FILLER_0_14_189
*669 FILLER_0_14_195
*670 FILLER_0_14_197
*671 FILLER_0_14_209
*672 FILLER_0_14_221
*673 FILLER_0_14_233
*674 FILLER_0_14_245
*675 FILLER_0_14_251
*676 FILLER_0_14_253
*677 FILLER_0_14_265
*678 FILLER_0_14_27
*679 FILLER_0_14_277
*680 FILLER_0_14_289
*681 FILLER_0_14_29
*682 FILLER_0_14_3
*683 FILLER_0_14_301
*684 FILLER_0_14_307
*685 FILLER_0_14_309
*686 FILLER_0_14_321
*687 FILLER_0_14_333
*688 FILLER_0_14_345
*689 FILLER_0_14_41
*690 FILLER_0_14_53
*691 FILLER_0_14_65
*692 FILLER_0_14_77
*693 FILLER_0_14_83
*694 FILLER_0_14_85
*695 FILLER_0_14_97
*696 FILLER_0_15_105
*697 FILLER_0_15_111
*698 FILLER_0_15_113
*699 FILLER_0_15_125
*700 FILLER_0_15_137
*701 FILLER_0_15_149
*702 FILLER_0_15_15
*703 FILLER_0_15_161
*704 FILLER_0_15_167
*705 FILLER_0_15_169
*706 FILLER_0_15_181
*707 FILLER_0_15_193
*708 FILLER_0_15_205
*709 FILLER_0_15_217
*710 FILLER_0_15_223
*711 FILLER_0_15_225
*712 FILLER_0_15_237
*713 FILLER_0_15_249
*714 FILLER_0_15_261
*715 FILLER_0_15_27
*716 FILLER_0_15_273
*717 FILLER_0_15_279
*718 FILLER_0_15_281
*719 FILLER_0_15_293
*720 FILLER_0_15_3
*721 FILLER_0_15_305
*722 FILLER_0_15_317
*723 FILLER_0_15_329
*724 FILLER_0_15_335
*725 FILLER_0_15_337
*726 FILLER_0_15_349
*727 FILLER_0_15_39
*728 FILLER_0_15_51
*729 FILLER_0_15_55
*730 FILLER_0_15_57
*731 FILLER_0_15_69
*732 FILLER_0_15_81
*733 FILLER_0_15_93
*734 FILLER_0_16_109
*735 FILLER_0_16_121
*736 FILLER_0_16_133
*737 FILLER_0_16_139
*738 FILLER_0_16_141
*739 FILLER_0_16_15
*740 FILLER_0_16_153
*741 FILLER_0_16_165
*742 FILLER_0_16_177
*743 FILLER_0_16_189
*744 FILLER_0_16_195
*745 FILLER_0_16_197
*746 FILLER_0_16_209
*747 FILLER_0_16_221
*748 FILLER_0_16_233
*749 FILLER_0_16_245
*750 FILLER_0_16_251
*751 FILLER_0_16_253
*752 FILLER_0_16_265
*753 FILLER_0_16_27
*754 FILLER_0_16_277
*755 FILLER_0_16_289
*756 FILLER_0_16_29
*757 FILLER_0_16_3
*758 FILLER_0_16_301
*759 FILLER_0_16_307
*760 FILLER_0_16_309
*761 FILLER_0_16_321
*762 FILLER_0_16_333
*763 FILLER_0_16_345
*764 FILLER_0_16_41
*765 FILLER_0_16_53
*766 FILLER_0_16_65
*767 FILLER_0_16_77
*768 FILLER_0_16_83
*769 FILLER_0_16_85
*770 FILLER_0_16_97
*771 FILLER_0_17_105
*772 FILLER_0_17_111
*773 FILLER_0_17_113
*774 FILLER_0_17_125
*775 FILLER_0_17_137
*776 FILLER_0_17_149
*777 FILLER_0_17_15
*778 FILLER_0_17_161
*779 FILLER_0_17_167
*780 FILLER_0_17_169
*781 FILLER_0_17_181
*782 FILLER_0_17_193
*783 FILLER_0_17_205
*784 FILLER_0_17_217
*785 FILLER_0_17_223
*786 FILLER_0_17_225
*787 FILLER_0_17_237
*788 FILLER_0_17_249
*789 FILLER_0_17_261
*790 FILLER_0_17_27
*791 FILLER_0_17_273
*792 FILLER_0_17_279
*793 FILLER_0_17_281
*794 FILLER_0_17_293
*795 FILLER_0_17_3
*796 FILLER_0_17_305
*797 FILLER_0_17_317
*798 FILLER_0_17_329
*799 FILLER_0_17_335
*800 FILLER_0_17_337
*801 FILLER_0_17_349
*802 FILLER_0_17_39
*803 FILLER_0_17_51
*804 FILLER_0_17_55
*805 FILLER_0_17_57
*806 FILLER_0_17_69
*807 FILLER_0_17_81
*808 FILLER_0_17_93
*809 FILLER_0_18_109
*810 FILLER_0_18_121
*811 FILLER_0_18_133
*812 FILLER_0_18_139
*813 FILLER_0_18_141
*814 FILLER_0_18_145
*815 FILLER_0_18_15
*816 FILLER_0_18_157
*817 FILLER_0_18_169
*818 FILLER_0_18_181
*819 FILLER_0_18_192
*820 FILLER_0_18_197
*821 FILLER_0_18_209
*822 FILLER_0_18_215
*823 FILLER_0_18_227
*824 FILLER_0_18_239
*825 FILLER_0_18_251
*826 FILLER_0_18_253
*827 FILLER_0_18_265
*828 FILLER_0_18_27
*829 FILLER_0_18_277
*830 FILLER_0_18_289
*831 FILLER_0_18_29
*832 FILLER_0_18_3
*833 FILLER_0_18_301
*834 FILLER_0_18_307
*835 FILLER_0_18_309
*836 FILLER_0_18_321
*837 FILLER_0_18_333
*838 FILLER_0_18_345
*839 FILLER_0_18_41
*840 FILLER_0_18_53
*841 FILLER_0_18_65
*842 FILLER_0_18_77
*843 FILLER_0_18_83
*844 FILLER_0_18_85
*845 FILLER_0_18_97
*846 FILLER_0_19_105
*847 FILLER_0_19_109
*848 FILLER_0_19_113
*849 FILLER_0_19_127
*850 FILLER_0_19_15
*851 FILLER_0_19_152
*852 FILLER_0_19_169
*853 FILLER_0_19_177
*854 FILLER_0_19_199
*855 FILLER_0_19_225
*856 FILLER_0_19_232
*857 FILLER_0_19_259
*858 FILLER_0_19_27
*859 FILLER_0_19_271
*860 FILLER_0_19_279
*861 FILLER_0_19_281
*862 FILLER_0_19_293
*863 FILLER_0_19_3
*864 FILLER_0_19_305
*865 FILLER_0_19_317
*866 FILLER_0_19_329
*867 FILLER_0_19_335
*868 FILLER_0_19_337
*869 FILLER_0_19_349
*870 FILLER_0_19_39
*871 FILLER_0_19_51
*872 FILLER_0_19_55
*873 FILLER_0_19_57
*874 FILLER_0_19_69
*875 FILLER_0_19_81
*876 FILLER_0_19_93
*877 FILLER_0_1_105
*878 FILLER_0_1_111
*879 FILLER_0_1_113
*880 FILLER_0_1_125
*881 FILLER_0_1_137
*882 FILLER_0_1_149
*883 FILLER_0_1_15
*884 FILLER_0_1_161
*885 FILLER_0_1_167
*886 FILLER_0_1_169
*887 FILLER_0_1_181
*888 FILLER_0_1_193
*889 FILLER_0_1_205
*890 FILLER_0_1_217
*891 FILLER_0_1_223
*892 FILLER_0_1_225
*893 FILLER_0_1_237
*894 FILLER_0_1_249
*895 FILLER_0_1_261
*896 FILLER_0_1_27
*897 FILLER_0_1_273
*898 FILLER_0_1_279
*899 FILLER_0_1_281
*900 FILLER_0_1_293
*901 FILLER_0_1_3
*902 FILLER_0_1_305
*903 FILLER_0_1_317
*904 FILLER_0_1_329
*905 FILLER_0_1_335
*906 FILLER_0_1_337
*907 FILLER_0_1_349
*908 FILLER_0_1_39
*909 FILLER_0_1_51
*910 FILLER_0_1_55
*911 FILLER_0_1_57
*912 FILLER_0_1_69
*913 FILLER_0_1_81
*914 FILLER_0_1_93
*915 FILLER_0_20_119
*916 FILLER_0_20_137
*917 FILLER_0_20_141
*918 FILLER_0_20_15
*919 FILLER_0_20_153
*920 FILLER_0_20_163
*921 FILLER_0_20_173
*922 FILLER_0_20_182
*923 FILLER_0_20_190
*924 FILLER_0_20_194
*925 FILLER_0_20_216
*926 FILLER_0_20_222
*927 FILLER_0_20_237
*928 FILLER_0_20_251
*929 FILLER_0_20_253
*930 FILLER_0_20_265
*931 FILLER_0_20_27
*932 FILLER_0_20_277
*933 FILLER_0_20_289
*934 FILLER_0_20_29
*935 FILLER_0_20_3
*936 FILLER_0_20_301
*937 FILLER_0_20_307
*938 FILLER_0_20_309
*939 FILLER_0_20_321
*940 FILLER_0_20_333
*941 FILLER_0_20_345
*942 FILLER_0_20_41
*943 FILLER_0_20_53
*944 FILLER_0_20_65
*945 FILLER_0_20_77
*946 FILLER_0_20_83
*947 FILLER_0_20_85
*948 FILLER_0_20_93
*949 FILLER_0_21_101
*950 FILLER_0_21_105
*951 FILLER_0_21_111
*952 FILLER_0_21_113
*953 FILLER_0_21_128
*954 FILLER_0_21_136
*955 FILLER_0_21_149
*956 FILLER_0_21_15
*957 FILLER_0_21_164
*958 FILLER_0_21_185
*959 FILLER_0_21_206
*960 FILLER_0_21_214
*961 FILLER_0_21_225
*962 FILLER_0_21_237
*963 FILLER_0_21_246
*964 FILLER_0_21_254
*965 FILLER_0_21_262
*966 FILLER_0_21_27
*967 FILLER_0_21_274
*968 FILLER_0_21_281
*969 FILLER_0_21_293
*970 FILLER_0_21_3
*971 FILLER_0_21_305
*972 FILLER_0_21_317
*973 FILLER_0_21_329
*974 FILLER_0_21_335
*975 FILLER_0_21_337
*976 FILLER_0_21_349
*977 FILLER_0_21_39
*978 FILLER_0_21_51
*979 FILLER_0_21_55
*980 FILLER_0_21_57
*981 FILLER_0_21_69
*982 FILLER_0_21_81
*983 FILLER_0_21_93
*984 FILLER_0_22_119
*985 FILLER_0_22_135
*986 FILLER_0_22_147
*987 FILLER_0_22_15
*988 FILLER_0_22_162
*989 FILLER_0_22_174
*990 FILLER_0_22_180
*991 FILLER_0_22_184
*992 FILLER_0_22_200
*993 FILLER_0_22_206
*994 FILLER_0_22_214
*995 FILLER_0_22_231
*996 FILLER_0_22_237
*997 FILLER_0_22_248
*998 FILLER_0_22_27
*999 FILLER_0_22_274
*1000 FILLER_0_22_281
*1001 FILLER_0_22_288
*1002 FILLER_0_22_29
*1003 FILLER_0_22_3
*1004 FILLER_0_22_300
*1005 FILLER_0_22_309
*1006 FILLER_0_22_313
*1007 FILLER_0_22_325
*1008 FILLER_0_22_337
*1009 FILLER_0_22_349
*1010 FILLER_0_22_41
*1011 FILLER_0_22_53
*1012 FILLER_0_22_65
*1013 FILLER_0_22_77
*1014 FILLER_0_22_83
*1015 FILLER_0_22_85
*1016 FILLER_0_22_93
*1017 FILLER_0_23_105
*1018 FILLER_0_23_109
*1019 FILLER_0_23_113
*1020 FILLER_0_23_125
*1021 FILLER_0_23_131
*1022 FILLER_0_23_15
*1023 FILLER_0_23_158
*1024 FILLER_0_23_166
*1025 FILLER_0_23_169
*1026 FILLER_0_23_188
*1027 FILLER_0_23_192
*1028 FILLER_0_23_196
*1029 FILLER_0_23_208
*1030 FILLER_0_23_214
*1031 FILLER_0_23_222
*1032 FILLER_0_23_229
*1033 FILLER_0_23_236
*1034 FILLER_0_23_248
*1035 FILLER_0_23_258
*1036 FILLER_0_23_27
*1037 FILLER_0_23_279
*1038 FILLER_0_23_3
*1039 FILLER_0_23_321
*1040 FILLER_0_23_333
*1041 FILLER_0_23_337
*1042 FILLER_0_23_349
*1043 FILLER_0_23_39
*1044 FILLER_0_23_51
*1045 FILLER_0_23_55
*1046 FILLER_0_23_57
*1047 FILLER_0_23_69
*1048 FILLER_0_23_81
*1049 FILLER_0_23_93
*1050 FILLER_0_24_117
*1051 FILLER_0_24_139
*1052 FILLER_0_24_141
*1053 FILLER_0_24_149
*1054 FILLER_0_24_15
*1055 FILLER_0_24_168
*1056 FILLER_0_24_183
*1057 FILLER_0_24_190
*1058 FILLER_0_24_223
*1059 FILLER_0_24_238
*1060 FILLER_0_24_256
*1061 FILLER_0_24_268
*1062 FILLER_0_24_27
*1063 FILLER_0_24_29
*1064 FILLER_0_24_292
*1065 FILLER_0_24_3
*1066 FILLER_0_24_305
*1067 FILLER_0_24_317
*1068 FILLER_0_24_329
*1069 FILLER_0_24_341
*1070 FILLER_0_24_349
*1071 FILLER_0_24_41
*1072 FILLER_0_24_53
*1073 FILLER_0_24_61
*1074 FILLER_0_24_88
*1075 FILLER_0_24_94
*1076 FILLER_0_24_99
*1077 FILLER_0_25_109
*1078 FILLER_0_25_113
*1079 FILLER_0_25_121
*1080 FILLER_0_25_125
*1081 FILLER_0_25_131
*1082 FILLER_0_25_145
*1083 FILLER_0_25_15
*1084 FILLER_0_25_158
*1085 FILLER_0_25_166
*1086 FILLER_0_25_169
*1087 FILLER_0_25_183
*1088 FILLER_0_25_189
*1089 FILLER_0_25_198
*1090 FILLER_0_25_210
*1091 FILLER_0_25_222
*1092 FILLER_0_25_225
*1093 FILLER_0_25_242
*1094 FILLER_0_25_250
*1095 FILLER_0_25_27
*1096 FILLER_0_25_278
*1097 FILLER_0_25_289
*1098 FILLER_0_25_293
*1099 FILLER_0_25_3
*1100 FILLER_0_25_326
*1101 FILLER_0_25_334
*1102 FILLER_0_25_337
*1103 FILLER_0_25_349
*1104 FILLER_0_25_39
*1105 FILLER_0_25_51
*1106 FILLER_0_25_55
*1107 FILLER_0_25_57
*1108 FILLER_0_25_61
*1109 FILLER_0_25_69
*1110 FILLER_0_25_82
*1111 FILLER_0_26_109
*1112 FILLER_0_26_134
*1113 FILLER_0_26_139
*1114 FILLER_0_26_141
*1115 FILLER_0_26_148
*1116 FILLER_0_26_15
*1117 FILLER_0_26_163
*1118 FILLER_0_26_173
*1119 FILLER_0_26_192
*1120 FILLER_0_26_197
*1121 FILLER_0_26_206
*1122 FILLER_0_26_222
*1123 FILLER_0_26_234
*1124 FILLER_0_26_240
*1125 FILLER_0_26_247
*1126 FILLER_0_26_253
*1127 FILLER_0_26_27
*1128 FILLER_0_26_289
*1129 FILLER_0_26_29
*1130 FILLER_0_26_3
*1131 FILLER_0_26_304
*1132 FILLER_0_26_309
*1133 FILLER_0_26_318
*1134 FILLER_0_26_330
*1135 FILLER_0_26_342
*1136 FILLER_0_26_350
*1137 FILLER_0_26_41
*1138 FILLER_0_26_53
*1139 FILLER_0_26_77
*1140 FILLER_0_26_83
*1141 FILLER_0_26_94
*1142 FILLER_0_27_104
*1143 FILLER_0_27_146
*1144 FILLER_0_27_15
*1145 FILLER_0_27_155
*1146 FILLER_0_27_167
*1147 FILLER_0_27_169
*1148 FILLER_0_27_181
*1149 FILLER_0_27_187
*1150 FILLER_0_27_194
*1151 FILLER_0_27_203
*1152 FILLER_0_27_215
*1153 FILLER_0_27_240
*1154 FILLER_0_27_27
*1155 FILLER_0_27_271
*1156 FILLER_0_27_279
*1157 FILLER_0_27_281
*1158 FILLER_0_27_295
*1159 FILLER_0_27_299
*1160 FILLER_0_27_3
*1161 FILLER_0_27_326
*1162 FILLER_0_27_330
*1163 FILLER_0_27_345
*1164 FILLER_0_27_39
*1165 FILLER_0_27_45
*1166 FILLER_0_27_49
*1167 FILLER_0_27_53
*1168 FILLER_0_27_57
*1169 FILLER_0_27_63
*1170 FILLER_0_27_67
*1171 FILLER_0_27_79
*1172 FILLER_0_27_85
*1173 FILLER_0_28_130
*1174 FILLER_0_28_136
*1175 FILLER_0_28_141
*1176 FILLER_0_28_15
*1177 FILLER_0_28_153
*1178 FILLER_0_28_162
*1179 FILLER_0_28_174
*1180 FILLER_0_28_181
*1181 FILLER_0_28_190
*1182 FILLER_0_28_197
*1183 FILLER_0_28_219
*1184 FILLER_0_28_235
*1185 FILLER_0_28_246
*1186 FILLER_0_28_27
*1187 FILLER_0_28_289
*1188 FILLER_0_28_29
*1189 FILLER_0_28_295
*1190 FILLER_0_28_3
*1191 FILLER_0_28_305
*1192 FILLER_0_28_309
*1193 FILLER_0_28_319
*1194 FILLER_0_28_346
*1195 FILLER_0_28_350
*1196 FILLER_0_28_37
*1197 FILLER_0_28_73
*1198 FILLER_0_28_85
*1199 FILLER_0_29_111
*1200 FILLER_0_29_113
*1201 FILLER_0_29_124
*1202 FILLER_0_29_128
*1203 FILLER_0_29_138
*1204 FILLER_0_29_15
*1205 FILLER_0_29_164
*1206 FILLER_0_29_169
*1207 FILLER_0_29_178
*1208 FILLER_0_29_220
*1209 FILLER_0_29_225
*1210 FILLER_0_29_233
*1211 FILLER_0_29_248
*1212 FILLER_0_29_256
*1213 FILLER_0_29_268
*1214 FILLER_0_29_27
*1215 FILLER_0_29_289
*1216 FILLER_0_29_3
*1217 FILLER_0_29_323
*1218 FILLER_0_29_332
*1219 FILLER_0_29_337
*1220 FILLER_0_29_349
*1221 FILLER_0_29_39
*1222 FILLER_0_29_54
*1223 FILLER_0_29_57
*1224 FILLER_0_29_61
*1225 FILLER_0_29_85
*1226 FILLER_0_29_89
*1227 FILLER_0_29_93
*1228 FILLER_0_29_99
*1229 FILLER_0_2_109
*1230 FILLER_0_2_121
*1231 FILLER_0_2_133
*1232 FILLER_0_2_139
*1233 FILLER_0_2_141
*1234 FILLER_0_2_15
*1235 FILLER_0_2_153
*1236 FILLER_0_2_165
*1237 FILLER_0_2_177
*1238 FILLER_0_2_189
*1239 FILLER_0_2_195
*1240 FILLER_0_2_197
*1241 FILLER_0_2_209
*1242 FILLER_0_2_221
*1243 FILLER_0_2_233
*1244 FILLER_0_2_245
*1245 FILLER_0_2_251
*1246 FILLER_0_2_253
*1247 FILLER_0_2_265
*1248 FILLER_0_2_27
*1249 FILLER_0_2_277
*1250 FILLER_0_2_289
*1251 FILLER_0_2_29
*1252 FILLER_0_2_3
*1253 FILLER_0_2_301
*1254 FILLER_0_2_307
*1255 FILLER_0_2_309
*1256 FILLER_0_2_321
*1257 FILLER_0_2_333
*1258 FILLER_0_2_345
*1259 FILLER_0_2_41
*1260 FILLER_0_2_53
*1261 FILLER_0_2_65
*1262 FILLER_0_2_77
*1263 FILLER_0_2_83
*1264 FILLER_0_2_85
*1265 FILLER_0_2_97
*1266 FILLER_0_30_106
*1267 FILLER_0_30_110
*1268 FILLER_0_30_118
*1269 FILLER_0_30_138
*1270 FILLER_0_30_141
*1271 FILLER_0_30_15
*1272 FILLER_0_30_153
*1273 FILLER_0_30_161
*1274 FILLER_0_30_166
*1275 FILLER_0_30_172
*1276 FILLER_0_30_179
*1277 FILLER_0_30_191
*1278 FILLER_0_30_195
*1279 FILLER_0_30_207
*1280 FILLER_0_30_219
*1281 FILLER_0_30_227
*1282 FILLER_0_30_237
*1283 FILLER_0_30_245
*1284 FILLER_0_30_251
*1285 FILLER_0_30_27
*1286 FILLER_0_30_273
*1287 FILLER_0_30_286
*1288 FILLER_0_30_29
*1289 FILLER_0_30_294
*1290 FILLER_0_30_299
*1291 FILLER_0_30_3
*1292 FILLER_0_30_307
*1293 FILLER_0_30_317
*1294 FILLER_0_30_325
*1295 FILLER_0_30_349
*1296 FILLER_0_30_37
*1297 FILLER_0_30_62
*1298 FILLER_0_30_70
*1299 FILLER_0_30_75
*1300 FILLER_0_30_83
*1301 FILLER_0_30_85
*1302 FILLER_0_31_101
*1303 FILLER_0_31_109
*1304 FILLER_0_31_113
*1305 FILLER_0_31_129
*1306 FILLER_0_31_134
*1307 FILLER_0_31_139
*1308 FILLER_0_31_149
*1309 FILLER_0_31_15
*1310 FILLER_0_31_157
*1311 FILLER_0_31_167
*1312 FILLER_0_31_173
*1313 FILLER_0_31_181
*1314 FILLER_0_31_200
*1315 FILLER_0_31_218
*1316 FILLER_0_31_225
*1317 FILLER_0_31_231
*1318 FILLER_0_31_244
*1319 FILLER_0_31_252
*1320 FILLER_0_31_264
*1321 FILLER_0_31_27
*1322 FILLER_0_31_272
*1323 FILLER_0_31_279
*1324 FILLER_0_31_289
*1325 FILLER_0_31_3
*1326 FILLER_0_31_327
*1327 FILLER_0_31_333
*1328 FILLER_0_31_337
*1329 FILLER_0_31_349
*1330 FILLER_0_31_39
*1331 FILLER_0_31_47
*1332 FILLER_0_31_53
*1333 FILLER_0_31_57
*1334 FILLER_0_31_81
*1335 FILLER_0_31_87
*1336 FILLER_0_32_103
*1337 FILLER_0_32_109
*1338 FILLER_0_32_117
*1339 FILLER_0_32_121
*1340 FILLER_0_32_133
*1341 FILLER_0_32_139
*1342 FILLER_0_32_15
*1343 FILLER_0_32_155
*1344 FILLER_0_32_195
*1345 FILLER_0_32_197
*1346 FILLER_0_32_209
*1347 FILLER_0_32_221
*1348 FILLER_0_32_236
*1349 FILLER_0_32_248
*1350 FILLER_0_32_253
*1351 FILLER_0_32_27
*1352 FILLER_0_32_273
*1353 FILLER_0_32_277
*1354 FILLER_0_32_286
*1355 FILLER_0_32_29
*1356 FILLER_0_32_294
*1357 FILLER_0_32_3
*1358 FILLER_0_32_300
*1359 FILLER_0_32_309
*1360 FILLER_0_32_318
*1361 FILLER_0_32_349
*1362 FILLER_0_32_37
*1363 FILLER_0_32_74
*1364 FILLER_0_32_78
*1365 FILLER_0_32_88
*1366 FILLER_0_33_100
*1367 FILLER_0_33_107
*1368 FILLER_0_33_111
*1369 FILLER_0_33_133
*1370 FILLER_0_33_147
*1371 FILLER_0_33_15
*1372 FILLER_0_33_155
*1373 FILLER_0_33_169
*1374 FILLER_0_33_177
*1375 FILLER_0_33_192
*1376 FILLER_0_33_196
*1377 FILLER_0_33_203
*1378 FILLER_0_33_214
*1379 FILLER_0_33_222
*1380 FILLER_0_33_225
*1381 FILLER_0_33_230
*1382 FILLER_0_33_238
*1383 FILLER_0_33_249
*1384 FILLER_0_33_262
*1385 FILLER_0_33_27
*1386 FILLER_0_33_274
*1387 FILLER_0_33_288
*1388 FILLER_0_33_3
*1389 FILLER_0_33_324
*1390 FILLER_0_33_328
*1391 FILLER_0_33_332
*1392 FILLER_0_33_337
*1393 FILLER_0_33_349
*1394 FILLER_0_33_39
*1395 FILLER_0_33_43
*1396 FILLER_0_33_47
*1397 FILLER_0_33_55
*1398 FILLER_0_33_57
*1399 FILLER_0_33_69
*1400 FILLER_0_34_118
*1401 FILLER_0_34_124
*1402 FILLER_0_34_134
*1403 FILLER_0_34_141
*1404 FILLER_0_34_149
*1405 FILLER_0_34_15
*1406 FILLER_0_34_157
*1407 FILLER_0_34_165
*1408 FILLER_0_34_172
*1409 FILLER_0_34_184
*1410 FILLER_0_34_197
*1411 FILLER_0_34_208
*1412 FILLER_0_34_220
*1413 FILLER_0_34_240
*1414 FILLER_0_34_248
*1415 FILLER_0_34_27
*1416 FILLER_0_34_289
*1417 FILLER_0_34_29
*1418 FILLER_0_34_296
*1419 FILLER_0_34_3
*1420 FILLER_0_34_320
*1421 FILLER_0_34_349
*1422 FILLER_0_34_73
*1423 FILLER_0_34_81
*1424 FILLER_0_34_88
*1425 FILLER_0_34_96
*1426 FILLER_0_35_104
*1427 FILLER_0_35_108
*1428 FILLER_0_35_122
*1429 FILLER_0_35_15
*1430 FILLER_0_35_162
*1431 FILLER_0_35_183
*1432 FILLER_0_35_189
*1433 FILLER_0_35_199
*1434 FILLER_0_35_211
*1435 FILLER_0_35_215
*1436 FILLER_0_35_223
*1437 FILLER_0_35_225
*1438 FILLER_0_35_231
*1439 FILLER_0_35_238
*1440 FILLER_0_35_257
*1441 FILLER_0_35_264
*1442 FILLER_0_35_268
*1443 FILLER_0_35_27
*1444 FILLER_0_35_277
*1445 FILLER_0_35_281
*1446 FILLER_0_35_3
*1447 FILLER_0_35_39
*1448 FILLER_0_35_48
*1449 FILLER_0_35_54
*1450 FILLER_0_35_57
*1451 FILLER_0_35_65
*1452 FILLER_0_35_97
*1453 FILLER_0_36_106
*1454 FILLER_0_36_118
*1455 FILLER_0_36_124
*1456 FILLER_0_36_15
*1457 FILLER_0_36_158
*1458 FILLER_0_36_164
*1459 FILLER_0_36_173
*1460 FILLER_0_36_183
*1461 FILLER_0_36_195
*1462 FILLER_0_36_200
*1463 FILLER_0_36_224
*1464 FILLER_0_36_248
*1465 FILLER_0_36_260
*1466 FILLER_0_36_266
*1467 FILLER_0_36_27
*1468 FILLER_0_36_272
*1469 FILLER_0_36_29
*1470 FILLER_0_36_294
*1471 FILLER_0_36_3
*1472 FILLER_0_36_309
*1473 FILLER_0_36_317
*1474 FILLER_0_36_321
*1475 FILLER_0_36_329
*1476 FILLER_0_36_41
*1477 FILLER_0_36_49
*1478 FILLER_0_36_58
*1479 FILLER_0_36_67
*1480 FILLER_0_36_74
*1481 FILLER_0_36_82
*1482 FILLER_0_36_99
*1483 FILLER_0_37_122
*1484 FILLER_0_37_15
*1485 FILLER_0_37_163
*1486 FILLER_0_37_167
*1487 FILLER_0_37_169
*1488 FILLER_0_37_173
*1489 FILLER_0_37_197
*1490 FILLER_0_37_202
*1491 FILLER_0_37_214
*1492 FILLER_0_37_221
*1493 FILLER_0_37_225
*1494 FILLER_0_37_231
*1495 FILLER_0_37_244
*1496 FILLER_0_37_256
*1497 FILLER_0_37_264
*1498 FILLER_0_37_27
*1499 FILLER_0_37_270
*1500 FILLER_0_37_278
*1501 FILLER_0_37_281
*1502 FILLER_0_37_286
*1503 FILLER_0_37_290
*1504 FILLER_0_37_3
*1505 FILLER_0_37_340
*1506 FILLER_0_37_350
*1507 FILLER_0_37_39
*1508 FILLER_0_37_51
*1509 FILLER_0_38_102
*1510 FILLER_0_38_106
*1511 FILLER_0_38_110
*1512 FILLER_0_38_113
*1513 FILLER_0_38_118
*1514 FILLER_0_38_122
*1515 FILLER_0_38_126
*1516 FILLER_0_38_130
*1517 FILLER_0_38_134
*1518 FILLER_0_38_14
*1519 FILLER_0_38_141
*1520 FILLER_0_38_147
*1521 FILLER_0_38_177
*1522 FILLER_0_38_18
*1523 FILLER_0_38_189
*1524 FILLER_0_38_195
*1525 FILLER_0_38_22
*1526 FILLER_0_38_223
*1527 FILLER_0_38_245
*1528 FILLER_0_38_251
*1529 FILLER_0_38_3
*1530 FILLER_0_38_312