*SPEF "ieee 1481-1999"
*DESIGN "tt_um_wokwi_374969806854695937"
*DATE "11:11:11 Fri 11 11, 1111"
*VENDOR "OpenRCX"
*PROGRAM "Parallel Extraction"
*VERSION "1.0"
*DESIGN_FLOW "NAME_SCOPE LOCAL" "PIN_CAP NONE"
*DIVIDER /
*DELIMITER :
*BUS_DELIMITER []
*T_UNIT 1 NS
*C_UNIT 1 PF
*R_UNIT 1 OHM
*L_UNIT 1 HENRY

*NAME_MAP
*3 clk
*4 ena
*5 rst_n
*6 ui_in[0]
*7 ui_in[1]
*8 ui_in[2]
*9 ui_in[3]
*10 ui_in[4]
*11 ui_in[5]
*12 ui_in[6]
*13 ui_in[7]
*14 uio_in[0]
*15 uio_in[1]
*16 uio_in[2]
*17 uio_in[3]
*18 uio_in[4]
*19 uio_in[5]
*20 uio_in[6]
*21 uio_in[7]
*22 uio_oe[0]
*23 uio_oe[1]
*24 uio_oe[2]
*25 uio_oe[3]
*26 uio_oe[4]
*27 uio_oe[5]
*28 uio_oe[6]
*29 uio_oe[7]
*30 uio_out[0]
*31 uio_out[1]
*32 uio_out[2]
*33 uio_out[3]
*34 uio_out[4]
*35 uio_out[5]
*36 uio_out[6]
*37 uio_out[7]
*38 uo_out[0]
*39 uo_out[1]
*40 uo_out[2]
*41 uo_out[3]
*42 uo_out[4]
*43 uo_out[5]
*44 uo_out[6]
*45 uo_out[7]
*46 _00_
*47 _01_
*48 _02_
*49 _03_
*50 _04_
*51 _05_
*52 _06_
*53 _07_
*54 _08_
*55 _09_
*56 _10_
*57 _11_
*58 _12_
*59 _13_
*60 _14_
*61 _15_
*62 _16_
*63 _17_
*64 _18_
*65 _19_
*66 _20_
*67 _21_
*68 _22_
*69 _23_
*70 and1\.a
*71 and1\.b
*72 and10\.a
*73 and10\.b
*74 and16\.b
*75 and17\.b
*76 and17\.out
*77 and18\.a
*78 and18\.b
*79 and19\.out
*80 and21\.out
*81 and24\.a
*82 and25\.b
*83 and27\.a
*84 and4\.out
*85 and6\.out
*86 flop2\.d
*87 flop3\.d
*88 flop4\.d
*89 flop5\.clk
*90 flop6\.q
*91 flop7\.d
*92 flop8\.d
*93 net1
*94 net2
*95 net3
*96 net4
*97 not3\.out
*98 or7\.out
*99 FILLER_0_0_109
*100 FILLER_0_0_113
*101 FILLER_0_0_125
*102 FILLER_0_0_137
*103 FILLER_0_0_141
*104 FILLER_0_0_15
*105 FILLER_0_0_153
*106 FILLER_0_0_165
*107 FILLER_0_0_169
*108 FILLER_0_0_181
*109 FILLER_0_0_193
*110 FILLER_0_0_197
*111 FILLER_0_0_209
*112 FILLER_0_0_221
*113 FILLER_0_0_225
*114 FILLER_0_0_237
*115 FILLER_0_0_249
*116 FILLER_0_0_253
*117 FILLER_0_0_265
*118 FILLER_0_0_27
*119 FILLER_0_0_277
*120 FILLER_0_0_281
*121 FILLER_0_0_29
*122 FILLER_0_0_293
*123 FILLER_0_0_3
*124 FILLER_0_0_305
*125 FILLER_0_0_309
*126 FILLER_0_0_321
*127 FILLER_0_0_333
*128 FILLER_0_0_337
*129 FILLER_0_0_349
*130 FILLER_0_0_41
*131 FILLER_0_0_53
*132 FILLER_0_0_57
*133 FILLER_0_0_69
*134 FILLER_0_0_81
*135 FILLER_0_0_85
*136 FILLER_0_0_97
*137 FILLER_0_10_109
*138 FILLER_0_10_121
*139 FILLER_0_10_133
*140 FILLER_0_10_139
*141 FILLER_0_10_141
*142 FILLER_0_10_15
*143 FILLER_0_10_153
*144 FILLER_0_10_165
*145 FILLER_0_10_177
*146 FILLER_0_10_189
*147 FILLER_0_10_195
*148 FILLER_0_10_197
*149 FILLER_0_10_209
*150 FILLER_0_10_221
*151 FILLER_0_10_233
*152 FILLER_0_10_245
*153 FILLER_0_10_251
*154 FILLER_0_10_253
*155 FILLER_0_10_265
*156 FILLER_0_10_27
*157 FILLER_0_10_277
*158 FILLER_0_10_289
*159 FILLER_0_10_29
*160 FILLER_0_10_3
*161 FILLER_0_10_301
*162 FILLER_0_10_307
*163 FILLER_0_10_309
*164 FILLER_0_10_321
*165 FILLER_0_10_333
*166 FILLER_0_10_345
*167 FILLER_0_10_41
*168 FILLER_0_10_53
*169 FILLER_0_10_65
*170 FILLER_0_10_77
*171 FILLER_0_10_83
*172 FILLER_0_10_85
*173 FILLER_0_10_97
*174 FILLER_0_11_105
*175 FILLER_0_11_111
*176 FILLER_0_11_113
*177 FILLER_0_11_125
*178 FILLER_0_11_137
*179 FILLER_0_11_149
*180 FILLER_0_11_15
*181 FILLER_0_11_161
*182 FILLER_0_11_167
*183 FILLER_0_11_169
*184 FILLER_0_11_181
*185 FILLER_0_11_193
*186 FILLER_0_11_205
*187 FILLER_0_11_217
*188 FILLER_0_11_223
*189 FILLER_0_11_225
*190 FILLER_0_11_237
*191 FILLER_0_11_249
*192 FILLER_0_11_261
*193 FILLER_0_11_27
*194 FILLER_0_11_273
*195 FILLER_0_11_279
*196 FILLER_0_11_281
*197 FILLER_0_11_293
*198 FILLER_0_11_3
*199 FILLER_0_11_305
*200 FILLER_0_11_317
*201 FILLER_0_11_329
*202 FILLER_0_11_335
*203 FILLER_0_11_337
*204 FILLER_0_11_349
*205 FILLER_0_11_39
*206 FILLER_0_11_51
*207 FILLER_0_11_55
*208 FILLER_0_11_57
*209 FILLER_0_11_69
*210 FILLER_0_11_81
*211 FILLER_0_11_93
*212 FILLER_0_12_109
*213 FILLER_0_12_121
*214 FILLER_0_12_133
*215 FILLER_0_12_139
*216 FILLER_0_12_141
*217 FILLER_0_12_15
*218 FILLER_0_12_153
*219 FILLER_0_12_165
*220 FILLER_0_12_177
*221 FILLER_0_12_189
*222 FILLER_0_12_195
*223 FILLER_0_12_197
*224 FILLER_0_12_209
*225 FILLER_0_12_221
*226 FILLER_0_12_233
*227 FILLER_0_12_245
*228 FILLER_0_12_251
*229 FILLER_0_12_253
*230 FILLER_0_12_265
*231 FILLER_0_12_27
*232 FILLER_0_12_277
*233 FILLER_0_12_289
*234 FILLER_0_12_29
*235 FILLER_0_12_3
*236 FILLER_0_12_301
*237 FILLER_0_12_307
*238 FILLER_0_12_309
*239 FILLER_0_12_321
*240 FILLER_0_12_333
*241 FILLER_0_12_345
*242 FILLER_0_12_41
*243 FILLER_0_12_53
*244 FILLER_0_12_65
*245 FILLER_0_12_77
*246 FILLER_0_12_83
*247 FILLER_0_12_85
*248 FILLER_0_12_97
*249 FILLER_0_13_105
*250 FILLER_0_13_111
*251 FILLER_0_13_113
*252 FILLER_0_13_125
*253 FILLER_0_13_137
*254 FILLER_0_13_149
*255 FILLER_0_13_15
*256 FILLER_0_13_161
*257 FILLER_0_13_167
*258 FILLER_0_13_169
*259 FILLER_0_13_181
*260 FILLER_0_13_193
*261 FILLER_0_13_205
*262 FILLER_0_13_217
*263 FILLER_0_13_223
*264 FILLER_0_13_225
*265 FILLER_0_13_237
*266 FILLER_0_13_249
*267 FILLER_0_13_261
*268 FILLER_0_13_27
*269 FILLER_0_13_273
*270 FILLER_0_13_279
*271 FILLER_0_13_281
*272 FILLER_0_13_293
*273 FILLER_0_13_3
*274 FILLER_0_13_305
*275 FILLER_0_13_317
*276 FILLER_0_13_329
*277 FILLER_0_13_335
*278 FILLER_0_13_337
*279 FILLER_0_13_349
*280 FILLER_0_13_39
*281 FILLER_0_13_51
*282 FILLER_0_13_55
*283 FILLER_0_13_57
*284 FILLER_0_13_69
*285 FILLER_0_13_81
*286 FILLER_0_13_93
*287 FILLER_0_14_109
*288 FILLER_0_14_121
*289 FILLER_0_14_133
*290 FILLER_0_14_139
*291 FILLER_0_14_141
*292 FILLER_0_14_15
*293 FILLER_0_14_153
*294 FILLER_0_14_165
*295 FILLER_0_14_177
*296 FILLER_0_14_189
*297 FILLER_0_14_195
*298 FILLER_0_14_197
*299 FILLER_0_14_209
*300 FILLER_0_14_221
*301 FILLER_0_14_233
*302 FILLER_0_14_245
*303 FILLER_0_14_251
*304 FILLER_0_14_253
*305 FILLER_0_14_265
*306 FILLER_0_14_27
*307 FILLER_0_14_277
*308 FILLER_0_14_289
*309 FILLER_0_14_29
*310 FILLER_0_14_3
*311 FILLER_0_14_301
*312 FILLER_0_14_307
*313 FILLER_0_14_309
*314 FILLER_0_14_321
*315 FILLER_0_14_333
*316 FILLER_0_14_345
*317 FILLER_0_14_41
*318 FILLER_0_14_53
*319 FILLER_0_14_65
*320 FILLER_0_14_77
*321 FILLER_0_14_83
*322 FILLER_0_14_85
*323 FILLER_0_14_97
*324 FILLER_0_15_105
*325 FILLER_0_15_111
*326 FILLER_0_15_113
*327 FILLER_0_15_125
*328 FILLER_0_15_137
*329 FILLER_0_15_149
*330 FILLER_0_15_15
*331 FILLER_0_15_161
*332 FILLER_0_15_167
*333 FILLER_0_15_169
*334 FILLER_0_15_181
*335 FILLER_0_15_193
*336 FILLER_0_15_205
*337 FILLER_0_15_217
*338 FILLER_0_15_223
*339 FILLER_0_15_225
*340 FILLER_0_15_237
*341 FILLER_0_15_249
*342 FILLER_0_15_261
*343 FILLER_0_15_27
*344 FILLER_0_15_273
*345 FILLER_0_15_279
*346 FILLER_0_15_281
*347 FILLER_0_15_293
*348 FILLER_0_15_3
*349 FILLER_0_15_305
*350 FILLER_0_15_317
*351 FILLER_0_15_329
*352 FILLER_0_15_335
*353 FILLER_0_15_337
*354 FILLER_0_15_349
*355 FILLER_0_15_39
*356 FILLER_0_15_51
*357 FILLER_0_15_55
*358 FILLER_0_15_57
*359 FILLER_0_15_69
*360 FILLER_0_15_81
*361 FILLER_0_15_93
*362 FILLER_0_16_109
*363 FILLER_0_16_121
*364 FILLER_0_16_133
*365 FILLER_0_16_139
*366 FILLER_0_16_141
*367 FILLER_0_16_15
*368 FILLER_0_16_153
*369 FILLER_0_16_165
*370 FILLER_0_16_177
*371 FILLER_0_16_189
*372 FILLER_0_16_195
*373 FILLER_0_16_197
*374 FILLER_0_16_209
*375 FILLER_0_16_221
*376 FILLER_0_16_233
*377 FILLER_0_16_245
*378 FILLER_0_16_251
*379 FILLER_0_16_253
*380 FILLER_0_16_265
*381 FILLER_0_16_27
*382 FILLER_0_16_277
*383 FILLER_0_16_289
*384 FILLER_0_16_29
*385 FILLER_0_16_3
*386 FILLER_0_16_301
*387 FILLER_0_16_307
*388 FILLER_0_16_309
*389 FILLER_0_16_321
*390 FILLER_0_16_333
*391 FILLER_0_16_345
*392 FILLER_0_16_41
*393 FILLER_0_16_53
*394 FILLER_0_16_65
*395 FILLER_0_16_77
*396 FILLER_0_16_83
*397 FILLER_0_16_85
*398 FILLER_0_16_97
*399 FILLER_0_17_105
*400 FILLER_0_17_111
*401 FILLER_0_17_113
*402 FILLER_0_17_125
*403 FILLER_0_17_137
*404 FILLER_0_17_149
*405 FILLER_0_17_15
*406 FILLER_0_17_161
*407 FILLER_0_17_167
*408 FILLER_0_17_169
*409 FILLER_0_17_181
*410 FILLER_0_17_193
*411 FILLER_0_17_205
*412 FILLER_0_17_217
*413 FILLER_0_17_223
*414 FILLER_0_17_225
*415 FILLER_0_17_237
*416 FILLER_0_17_249
*417 FILLER_0_17_261
*418 FILLER_0_17_27
*419 FILLER_0_17_273
*420 FILLER_0_17_279
*421 FILLER_0_17_281
*422 FILLER_0_17_293
*423 FILLER_0_17_3
*424 FILLER_0_17_305
*425 FILLER_0_17_317
*426 FILLER_0_17_329
*427 FILLER_0_17_335
*428 FILLER_0_17_337
*429 FILLER_0_17_349
*430 FILLER_0_17_39
*431 FILLER_0_17_51
*432 FILLER_0_17_55
*433 FILLER_0_17_57
*434 FILLER_0_17_69
*435 FILLER_0_17_81
*436 FILLER_0_17_93
*437 FILLER_0_18_109
*438 FILLER_0_18_121
*439 FILLER_0_18_133
*440 FILLER_0_18_139
*441 FILLER_0_18_141
*442 FILLER_0_18_15
*443 FILLER_0_18_153
*444 FILLER_0_18_165
*445 FILLER_0_18_177
*446 FILLER_0_18_189
*447 FILLER_0_18_195
*448 FILLER_0_18_197
*449 FILLER_0_18_209
*450 FILLER_0_18_221
*451 FILLER_0_18_233
*452 FILLER_0_18_245
*453 FILLER_0_18_251
*454 FILLER_0_18_253
*455 FILLER_0_18_265
*456 FILLER_0_18_27
*457 FILLER_0_18_277
*458 FILLER_0_18_289
*459 FILLER_0_18_29
*460 FILLER_0_18_3
*461 FILLER_0_18_301
*462 FILLER_0_18_307
*463 FILLER_0_18_309
*464 FILLER_0_18_321
*465 FILLER_0_18_333
*466 FILLER_0_18_345
*467 FILLER_0_18_41
*468 FILLER_0_18_53
*469 FILLER_0_18_65
*470 FILLER_0_18_77
*471 FILLER_0_18_83
*472 FILLER_0_18_85
*473 FILLER_0_18_97
*474 FILLER_0_19_105
*475 FILLER_0_19_111
*476 FILLER_0_19_113
*477 FILLER_0_19_125
*478 FILLER_0_19_137
*479 FILLER_0_19_149
*480 FILLER_0_19_15
*481 FILLER_0_19_161
*482 FILLER_0_19_167
*483 FILLER_0_19_169
*484 FILLER_0_19_181
*485 FILLER_0_19_193
*486 FILLER_0_19_205
*487 FILLER_0_19_217
*488 FILLER_0_19_223
*489 FILLER_0_19_225
*490 FILLER_0_19_237
*491 FILLER_0_19_249
*492 FILLER_0_19_261
*493 FILLER_0_19_27
*494 FILLER_0_19_273
*495 FILLER_0_19_279
*496 FILLER_0_19_281
*497 FILLER_0_19_293
*498 FILLER_0_19_3
*499 FILLER_0_19_305
*500 FILLER_0_19_317
*501 FILLER_0_19_329
*502 FILLER_0_19_335
*503 FILLER_0_19_337
*504 FILLER_0_19_349
*505 FILLER_0_19_39
*506 FILLER_0_19_51
*507 FILLER_0_19_55
*508 FILLER_0_19_57
*509 FILLER_0_19_69
*510 FILLER_0_19_81
*511 FILLER_0_19_93
*512 FILLER_0_1_105
*513 FILLER_0_1_111
*514 FILLER_0_1_113
*515 FILLER_0_1_125
*516 FILLER_0_1_137
*517 FILLER_0_1_149
*518 FILLER_0_1_15
*519 FILLER_0_1_161
*520 FILLER_0_1_167
*521 FILLER_0_1_169
*522 FILLER_0_1_181
*523 FILLER_0_1_193
*524 FILLER_0_1_205
*525 FILLER_0_1_217
*526 FILLER_0_1_223
*527 FILLER_0_1_225
*528 FILLER_0_1_237
*529 FILLER_0_1_249
*530 FILLER_0_1_261
*531 FILLER_0_1_27
*532 FILLER_0_1_273
*533 FILLER_0_1_279
*534 FILLER_0_1_281
*535 FILLER_0_1_293
*536 FILLER_0_1_3
*537 FILLER_0_1_305
*538 FILLER_0_1_317
*539 FILLER_0_1_329
*540 FILLER_0_1_335
*541 FILLER_0_1_337
*542 FILLER_0_1_349
*543 FILLER_0_1_39
*544 FILLER_0_1_51
*545 FILLER_0_1_55
*546 FILLER_0_1_57
*547 FILLER_0_1_69
*548 FILLER_0_1_81
*549 FILLER_0_1_93
*550 FILLER_0_20_109
*551 FILLER_0_20_121
*552 FILLER_0_20_133
*553 FILLER_0_20_139
*554 FILLER_0_20_141
*555 FILLER_0_20_15
*556 FILLER_0_20_153
*557 FILLER_0_20_165
*558 FILLER_0_20_177
*559 FILLER_0_20_189
*560 FILLER_0_20_195
*561 FILLER_0_20_197
*562 FILLER_0_20_209
*563 FILLER_0_20_221
*564 FILLER_0_20_233
*565 FILLER_0_20_245
*566 FILLER_0_20_251
*567 FILLER_0_20_253
*568 FILLER_0_20_265
*569 FILLER_0_20_27
*570 FILLER_0_20_277
*571 FILLER_0_20_289
*572 FILLER_0_20_29
*573 FILLER_0_20_3
*574 FILLER_0_20_301
*575 FILLER_0_20_307
*576 FILLER_0_20_309
*577 FILLER_0_20_321
*578 FILLER_0_20_333
*579 FILLER_0_20_345
*580 FILLER_0_20_41
*581 FILLER_0_20_53
*582 FILLER_0_20_65
*583 FILLER_0_20_77
*584 FILLER_0_20_83
*585 FILLER_0_20_85
*586 FILLER_0_20_97
*587 FILLER_0_21_105
*588 FILLER_0_21_111
*589 FILLER_0_21_113
*590 FILLER_0_21_125
*591 FILLER_0_21_137
*592 FILLER_0_21_149
*593 FILLER_0_21_15
*594 FILLER_0_21_161
*595 FILLER_0_21_167
*596 FILLER_0_21_169
*597 FILLER_0_21_181
*598 FILLER_0_21_193
*599 FILLER_0_21_205
*600 FILLER_0_21_217
*601 FILLER_0_21_223
*602 FILLER_0_21_225
*603 FILLER_0_21_237
*604 FILLER_0_21_249
*605 FILLER_0_21_261
*606 FILLER_0_21_27
*607 FILLER_0_21_273
*608 FILLER_0_21_279
*609 FILLER_0_21_281
*610 FILLER_0_21_293
*611 FILLER_0_21_3
*612 FILLER_0_21_305
*613 FILLER_0_21_317
*614 FILLER_0_21_329
*615 FILLER_0_21_335
*616 FILLER_0_21_337
*617 FILLER_0_21_349
*618 FILLER_0_21_39
*619 FILLER_0_21_51
*620 FILLER_0_21_55
*621 FILLER_0_21_57
*622 FILLER_0_21_69
*623 FILLER_0_21_81
*624 FILLER_0_21_93
*625 FILLER_0_22_109
*626 FILLER_0_22_121
*627 FILLER_0_22_133
*628 FILLER_0_22_139
*629 FILLER_0_22_141
*630 FILLER_0_22_15
*631 FILLER_0_22_153
*632 FILLER_0_22_165
*633 FILLER_0_22_177
*634 FILLER_0_22_189
*635 FILLER_0_22_195
*636 FILLER_0_22_197
*637 FILLER_0_22_209
*638 FILLER_0_22_221
*639 FILLER_0_22_233
*640 FILLER_0_22_245
*641 FILLER_0_22_251
*642 FILLER_0_22_253
*643 FILLER_0_22_265
*644 FILLER_0_22_27
*645 FILLER_0_22_277
*646 FILLER_0_22_289
*647 FILLER_0_22_29
*648 FILLER_0_22_3
*649 FILLER_0_22_301
*650 FILLER_0_22_307
*651 FILLER_0_22_309
*652 FILLER_0_22_321
*653 FILLER_0_22_333
*654 FILLER_0_22_345
*655 FILLER_0_22_41
*656 FILLER_0_22_53
*657 FILLER_0_22_65
*658 FILLER_0_22_77
*659 FILLER_0_22_83
*660 FILLER_0_22_85
*661 FILLER_0_22_97
*662 FILLER_0_23_105
*663 FILLER_0_23_111
*664 FILLER_0_23_113
*665 FILLER_0_23_125
*666 FILLER_0_23_137
*667 FILLER_0_23_149
*668 FILLER_0_23_15
*669 FILLER_0_23_161
*670 FILLER_0_23_167
*671 FILLER_0_23_169
*672 FILLER_0_23_181
*673 FILLER_0_23_193
*674 FILLER_0_23_205
*675 FILLER_0_23_217
*676 FILLER_0_23_223
*677 FILLER_0_23_225
*678 FILLER_0_23_237
*679 FILLER_0_23_249
*680 FILLER_0_23_261
*681 FILLER_0_23_27
*682 FILLER_0_23_273
*683 FILLER_0_23_279
*684 FILLER_0_23_281
*685 FILLER_0_23_293
*686 FILLER_0_23_3
*687 FILLER_0_23_305
*688 FILLER_0_23_317
*689 FILLER_0_23_329
*690 FILLER_0_23_335
*691 FILLER_0_23_337
*692 FILLER_0_23_349
*693 FILLER_0_23_39
*694 FILLER_0_23_51
*695 FILLER_0_23_55
*696 FILLER_0_23_57
*697 FILLER_0_23_69
*698 FILLER_0_23_81
*699 FILLER_0_23_93
*700 FILLER_0_24_109
*701 FILLER_0_24_121
*702 FILLER_0_24_133
*703 FILLER_0_24_139
*704 FILLER_0_24_141
*705 FILLER_0_24_15
*706 FILLER_0_24_153
*707 FILLER_0_24_165
*708 FILLER_0_24_177
*709 FILLER_0_24_189
*710 FILLER_0_24_195
*711 FILLER_0_24_197
*712 FILLER_0_24_209
*713 FILLER_0_24_221
*714 FILLER_0_24_233
*715 FILLER_0_24_245
*716 FILLER_0_24_251
*717 FILLER_0_24_253
*718 FILLER_0_24_265
*719 FILLER_0_24_27
*720 FILLER_0_24_277
*721 FILLER_0_24_289
*722 FILLER_0_24_29
*723 FILLER_0_24_3
*724 FILLER_0_24_301
*725 FILLER_0_24_307
*726 FILLER_0_24_309
*727 FILLER_0_24_321
*728 FILLER_0_24_333
*729 FILLER_0_24_345
*730 FILLER_0_24_41
*731 FILLER_0_24_53
*732 FILLER_0_24_65
*733 FILLER_0_24_77
*734 FILLER_0_24_83
*735 FILLER_0_24_85
*736 FILLER_0_24_97
*737 FILLER_0_25_105
*738 FILLER_0_25_111
*739 FILLER_0_25_113
*740 FILLER_0_25_125
*741 FILLER_0_25_137
*742 FILLER_0_25_149
*743 FILLER_0_25_15
*744 FILLER_0_25_161
*745 FILLER_0_25_167
*746 FILLER_0_25_169
*747 FILLER_0_25_181
*748 FILLER_0_25_193
*749 FILLER_0_25_205
*750 FILLER_0_25_217
*751 FILLER_0_25_223
*752 FILLER_0_25_225
*753 FILLER_0_25_237
*754 FILLER_0_25_249
*755 FILLER_0_25_261
*756 FILLER_0_25_27
*757 FILLER_0_25_273
*758 FILLER_0_25_279
*759 FILLER_0_25_281
*760 FILLER_0_25_293
*761 FILLER_0_25_3
*762 FILLER_0_25_305
*763 FILLER_0_25_317
*764 FILLER_0_25_329
*765 FILLER_0_25_335
*766 FILLER_0_25_337
*767 FILLER_0_25_349
*768 FILLER_0_25_39
*769 FILLER_0_25_51
*770 FILLER_0_25_55
*771 FILLER_0_25_57
*772 FILLER_0_25_69
*773 FILLER_0_25_81
*774 FILLER_0_25_93
*775 FILLER_0_26_109
*776 FILLER_0_26_121
*777 FILLER_0_26_133
*778 FILLER_0_26_139
*779 FILLER_0_26_141
*780 FILLER_0_26_15
*781 FILLER_0_26_153
*782 FILLER_0_26_165
*783 FILLER_0_26_177
*784 FILLER_0_26_189
*785 FILLER_0_26_195
*786 FILLER_0_26_197
*787 FILLER_0_26_209
*788 FILLER_0_26_221
*789 FILLER_0_26_233
*790 FILLER_0_26_245
*791 FILLER_0_26_251
*792 FILLER_0_26_253
*793 FILLER_0_26_265
*794 FILLER_0_26_27
*795 FILLER_0_26_277
*796 FILLER_0_26_289
*797 FILLER_0_26_29
*798 FILLER_0_26_3
*799 FILLER_0_26_301
*800 FILLER_0_26_307
*801 FILLER_0_26_309
*802 FILLER_0_26_321
*803 FILLER_0_26_333
*804 FILLER_0_26_345
*805 FILLER_0_26_41
*806 FILLER_0_26_53
*807 FILLER_0_26_65
*808 FILLER_0_26_77
*809 FILLER_0_26_83
*810 FILLER_0_26_85
*811 FILLER_0_26_97
*812 FILLER_0_27_105
*813 FILLER_0_27_111
*814 FILLER_0_27_113
*815 FILLER_0_27_125
*816 FILLER_0_27_137
*817 FILLER_0_27_149
*818 FILLER_0_27_15
*819 FILLER_0_27_161
*820 FILLER_0_27_167
*821 FILLER_0_27_169
*822 FILLER_0_27_181
*823 FILLER_0_27_193
*824 FILLER_0_27_205
*825 FILLER_0_27_217
*826 FILLER_0_27_223
*827 FILLER_0_27_225
*828 FILLER_0_27_237
*829 FILLER_0_27_249
*830 FILLER_0_27_261
*831 FILLER_0_27_27
*832 FILLER_0_27_273
*833 FILLER_0_27_279
*834 FILLER_0_27_281
*835 FILLER_0_27_293
*836 FILLER_0_27_3
*837 FILLER_0_27_305
*838 FILLER_0_27_317
*839 FILLER_0_27_329
*840 FILLER_0_27_335
*841 FILLER_0_27_337
*842 FILLER_0_27_349
*843 FILLER_0_27_39
*844 FILLER_0_27_51
*845 FILLER_0_27_55
*846 FILLER_0_27_57
*847 FILLER_0_27_69
*848 FILLER_0_27_81
*849 FILLER_0_27_93
*850 FILLER_0_28_109
*851 FILLER_0_28_121
*852 FILLER_0_28_133
*853 FILLER_0_28_139
*854 FILLER_0_28_141
*855 FILLER_0_28_15
*856 FILLER_0_28_153
*857 FILLER_0_28_165
*858 FILLER_0_28_177
*859 FILLER_0_28_189
*860 FILLER_0_28_195
*861 FILLER_0_28_197
*862 FILLER_0_28_209
*863 FILLER_0_28_221
*864 FILLER_0_28_233
*865 FILLER_0_28_245
*866 FILLER_0_28_251
*867 FILLER_0_28_253
*868 FILLER_0_28_265
*869 FILLER_0_28_27
*870 FILLER_0_28_277
*871 FILLER_0_28_289
*872 FILLER_0_28_29
*873 FILLER_0_28_3
*874 FILLER_0_28_301
*875 FILLER_0_28_307
*876 FILLER_0_28_309
*877 FILLER_0_28_321
*878 FILLER_0_28_333
*879 FILLER_0_28_345
*880 FILLER_0_28_41
*881 FILLER_0_28_53
*882 FILLER_0_28_65
*883 FILLER_0_28_77
*884 FILLER_0_28_83
*885 FILLER_0_28_85
*886 FILLER_0_28_97
*887 FILLER_0_29_105
*888 FILLER_0_29_111
*889 FILLER_0_29_113
*890 FILLER_0_29_125
*891 FILLER_0_29_137
*892 FILLER_0_29_149
*893 FILLER_0_29_15
*894 FILLER_0_29_161
*895 FILLER_0_29_167
*896 FILLER_0_29_169
*897 FILLER_0_29_181
*898 FILLER_0_29_193
*899 FILLER_0_29_205
*900 FILLER_0_29_217
*901 FILLER_0_29_223
*902 FILLER_0_29_225
*903 FILLER_0_29_237
*904 FILLER_0_29_249
*905 FILLER_0_29_261
*906 FILLER_0_29_27
*907 FILLER_0_29_273
*908 FILLER_0_29_279
*909 FILLER_0_29_281
*910 FILLER_0_29_293
*911 FILLER_0_29_3
*912 FILLER_0_29_305
*913 FILLER_0_29_317
*914 FILLER_0_29_329
*915 FILLER_0_29_335
*916 FILLER_0_29_337
*917 FILLER_0_29_349
*918 FILLER_0_29_39
*919 FILLER_0_29_51
*920 FILLER_0_29_55
*921 FILLER_0_29_57
*922 FILLER_0_29_69
*923 FILLER_0_29_81
*924 FILLER_0_29_93
*925 FILLER_0_2_109
*926 FILLER_0_2_121
*927 FILLER_0_2_133
*928 FILLER_0_2_139
*929 FILLER_0_2_141
*930 FILLER_0_2_15
*931 FILLER_0_2_153
*932 FILLER_0_2_165
*933 FILLER_0_2_177
*934 FILLER_0_2_189
*935 FILLER_0_2_195
*936 FILLER_0_2_197
*937 FILLER_0_2_209
*938 FILLER_0_2_221
*939 FILLER_0_2_233
*940 FILLER_0_2_245
*941 FILLER_0_2_251
*942 FILLER_0_2_253
*943 FILLER_0_2_265
*944 FILLER_0_2_27
*945 FILLER_0_2_277
*946 FILLER_0_2_289
*947 FILLER_0_2_29
*948 FILLER_0_2_3
*949 FILLER_0_2_301
*950 FILLER_0_2_307
*951 FILLER_0_2_309
*952 FILLER_0_2_321
*953 FILLER_0_2_333
*954 FILLER_0_2_345
*955 FILLER_0_2_41
*956 FILLER_0_2_53
*957 FILLER_0_2_65
*958 FILLER_0_2_77
*959 FILLER_0_2_83
*960 FILLER_0_2_85
*961 FILLER_0_2_97
*962 FILLER_0_30_109
*963 FILLER_0_30_121
*964 FILLER_0_30_133
*965 FILLER_0_30_139
*966 FILLER_0_30_141
*967 FILLER_0_30_15
*968 FILLER_0_30_153
*969 FILLER_0_30_165
*970 FILLER_0_30_177
*971 FILLER_0_30_189
*972 FILLER_0_30_195
*973 FILLER_0_30_197
*974 FILLER_0_30_209
*975 FILLER_0_30_221
*976 FILLER_0_30_233
*977 FILLER_0_30_245
*978 FILLER_0_30_251
*979 FILLER_0_30_253
*980 FILLER_0_30_265
*981 FILLER_0_30_27
*982 FILLER_0_30_277
*983 FILLER_0_30_289
*984 FILLER_0_30_29
*985 FILLER_0_30_3
*986 FILLER_0_30_301
*987 FILLER_0_30_307
*988 FILLER_0_30_309
*989 FILLER_0_30_321
*990 FILLER_0_30_333
*991 FILLER_0_30_345
*992 FILLER_0_30_41
*993 FILLER_0_30_53
*994 FILLER_0_30_65
*995 FILLER_0_30_77
*996 FILLER_0_30_83
*997 FILLER_0_30_85
*998 FILLER_0_30_97
*999 FILLER_0_31_105
*1000 FILLER_0_31_111
*1001 FILLER_0_31_113
*1002 FILLER_0_31_125
*1003 FILLER_0_31_137
*1004 FILLER_0_31_149
*1005 FILLER_0_31_15
*1006 FILLER_0_31_161
*1007 FILLER_0_31_167
*1008 FILLER_0_31_169
*1009 FILLER_0_31_181
*1010 FILLER_0_31_193
*1011 FILLER_0_31_205
*1012 FILLER_0_31_217
*1013 FILLER_0_31_223
*1014 FILLER_0_31_225
*1015 FILLER_0_31_237
*1016 FILLER_0_31_249
*1017 FILLER_0_31_261
*1018 FILLER_0_31_27
*1019 FILLER_0_31_273
*1020 FILLER_0_31_279
*1021 FILLER_0_31_281
*1022 FILLER_0_31_293
*1023 FILLER_0_31_3
*1024 FILLER_0_31_305
*1025 FILLER_0_31_317
*1026 FILLER_0_31_329
*1027 FILLER_0_31_335
*1028 FILLER_0_31_337
*1029 FILLER_0_31_349
*1030 FILLER_0_31_39
*1031 FILLER_0_31_51
*1032 FILLER_0_31_55
*1033 FILLER_0_31_57
*1034 FILLER_0_31_69
*1035 FILLER_0_31_81
*1036 FILLER_0_31_93
*1037 FILLER_0_32_109
*1038 FILLER_0_32_121
*1039 FILLER_0_32_133
*1040 FILLER_0_32_139
*1041 FILLER_0_32_141
*1042 FILLER_0_32_15
*1043 FILLER_0_32_153
*1044 FILLER_0_32_165
*1045 FILLER_0_32_177
*1046 FILLER_0_32_189
*1047 FILLER_0_32_195
*1048 FILLER_0_32_197
*1049 FILLER_0_32_209
*1050 FILLER_0_32_221
*1051 FILLER_0_32_233
*1052 FILLER_0_32_245
*1053 FILLER_0_32_251
*1054 FILLER_0_32_253
*1055 FILLER_0_32_265
*1056 FILLER_0_32_27
*1057 FILLER_0_32_277
*1058 FILLER_0_32_289
*1059 FILLER_0_32_29
*1060 FILLER_0_32_3
*1061 FILLER_0_32_301
*1062 FILLER_0_32_307
*1063 FILLER_0_32_309
*1064 FILLER_0_32_321
*1065 FILLER_0_32_333
*1066 FILLER_0_32_345
*1067 FILLER_0_32_41
*1068 FILLER_0_32_53
*1069 FILLER_0_32_65
*1070 FILLER_0_32_77
*1071 FILLER_0_32_83
*1072 FILLER_0_32_85
*1073 FILLER_0_32_97
*1074 FILLER_0_33_105
*1075 FILLER_0_33_111
*1076 FILLER_0_33_113
*1077 FILLER_0_33_125
*1078 FILLER_0_33_137
*1079 FILLER_0_33_149
*1080 FILLER_0_33_15
*1081 FILLER_0_33_161
*1082 FILLER_0_33_167
*1083 FILLER_0_33_169
*1084 FILLER_0_33_181
*1085 FILLER_0_33_185
*1086 FILLER_0_33_206
*1087 FILLER_0_33_218
*1088 FILLER_0_33_225
*1089 FILLER_0_33_237
*1090 FILLER_0_33_249
*1091 FILLER_0_33_261
*1092 FILLER_0_33_27
*1093 FILLER_0_33_273
*1094 FILLER_0_33_279
*1095 FILLER_0_33_281
*1096 FILLER_0_33_293
*1097 FILLER_0_33_3
*1098 FILLER_0_33_305
*1099 FILLER_0_33_317
*1100 FILLER_0_33_329
*1101 FILLER_0_33_335
*1102 FILLER_0_33_337
*1103 FILLER_0_33_349
*1104 FILLER_0_33_39
*1105 FILLER_0_33_51
*1106 FILLER_0_33_55
*1107 FILLER_0_33_57
*1108 FILLER_0_33_69
*1109 FILLER_0_33_81
*1110 FILLER_0_33_93
*1111 FILLER_0_34_141
*1112 FILLER_0_34_145
*1113 FILLER_0_34_149
*1114 FILLER_0_34_15
*1115 FILLER_0_34_161
*1116 FILLER_0_34_169
*1117 FILLER_0_34_175
*1118 FILLER_0_34_180
*1119 FILLER_0_34_188
*1120 FILLER_0_34_194
*1121 FILLER_0_34_197
*1122 FILLER_0_34_201
*1123 FILLER_0_34_209
*1124 FILLER_0_34_232
*1125 FILLER_0_34_244
*1126 FILLER_0_34_253
*1127 FILLER_0_34_265
*1128 FILLER_0_34_27
*1129 FILLER_0_34_277
*1130 FILLER_0_34_289
*1131 FILLER_0_34_29
*1132 FILLER_0_34_3
*1133 FILLER_0_34_301
*1134 FILLER_0_34_307
*1135 FILLER_0_34_309
*1136 FILLER_0_34_321
*1137 FILLER_0_34_333
*1138 FILLER_0_34_345
*1139 FILLER_0_34_41
*1140 FILLER_0_34_53
*1141 FILLER_0_34_65
*1142 FILLER_0_34_77
*1143 FILLER_0_34_83
*1144 FILLER_0_34_85
*1145 FILLER_0_34_89
*1146 FILLER_0_34_97
*1147 FILLER_0_35_110
*1148 FILLER_0_35_117
*1149 FILLER_0_35_133
*1150 FILLER_0_35_141
*1151 FILLER_0_35_149
*1152 FILLER_0_35_15
*1153 FILLER_0_35_161
*1154 FILLER_0_35_165
*1155 FILLER_0_35_189
*1156 FILLER_0_35_198
*1157 FILLER_0_35_210
*1158 FILLER_0_35_215
*1159 FILLER_0_35_223
*1160 FILLER_0_35_228
*1161 FILLER_0_35_240
*1162 FILLER_0_35_252
*1163 FILLER_0_35_264
*1164 FILLER_0_35_27
*1165 FILLER_0_35_276
*1166 FILLER_0_35_281
*1167 FILLER_0_35_293
*1168 FILLER_0_35_3
*1169 FILLER_0_35_305
*1170 FILLER_0_35_317
*1171 FILLER_0_35_329
*1172 FILLER_0_35_335
*1173 FILLER_0_35_337
*1174 FILLER_0_35_349
*1175 FILLER_0_35_39
*1176 FILLER_0_35_51
*1177 FILLER_0_35_55
*1178 FILLER_0_35_57
*1179 FILLER_0_35_69
*1180 FILLER_0_35_91
*1181 FILLER_0_35_98
*1182 FILLER_0_36_105
*1183 FILLER_0_36_111
*1184 FILLER_0_36_116
*1185 FILLER_0_36_128
*1186 FILLER_0_36_132
*1187 FILLER_0_36_137
*1188 FILLER_0_36_15
*1189 FILLER_0_36_167
*1190 FILLER_0_36_179
*1191 FILLER_0_36_187
*1192 FILLER_0_36_202
*1193 FILLER_0_36_220
*1194 FILLER_0_36_228
*1195 FILLER_0_36_233
*1196 FILLER_0_36_245
*1197 FILLER_0_36_251
*1198 FILLER_0_36_253
*1199 FILLER_0_36_265
*1200 FILLER_0_36_27
*1201 FILLER_0_36_277
*1202 FILLER_0_36_289
*1203 FILLER_0_36_29
*1204 FILLER_0_36_3
*1205 FILLER_0_36_301
*1206 FILLER_0_36_307
*1207 FILLER_0_36_309
*1208 FILLER_0_36_321
*1209 FILLER_0_36_333
*1210 FILLER_0_36_345
*1211 FILLER_0_36_41
*1212 FILLER_0_36_53
*1213 FILLER_0_36_65
*1214 FILLER_0_36_77
*1215 FILLER_0_36_83
*1216 FILLER_0_36_85
*1217 FILLER_0_36_93
*1218 FILLER_0_37_108
*1219 FILLER_0_37_122
*1220 FILLER_0_37_129
*1221 FILLER_0_37_134
*1222 FILLER_0_37_145
*1223 FILLER_0_37_15
*1224 FILLER_0_37_152
*1225 FILLER_0_37_160
*1226 FILLER_0_37_172
*1227 FILLER_0_37_184
*1228 FILLER_0_37_191
*1229 FILLER_0_37_198
*1230 FILLER_0_37_206
*1231 FILLER_0_37_211
*1232 FILLER_0_37_222
*1233 FILLER_0_37_245
*1234 FILLER_0_37_257
*1235 FILLER_0_37_269
*1236 FILLER_0_37_27
*1237 FILLER_0_37_277
*1238 FILLER_0_37_281
*1239 FILLER_0_37_293
*1240 FILLER_0_37_3
*1241 FILLER_0_37_305
*1242 FILLER_0_37_317
*1243 FILLER_0_37_329
*1244 FILLER_0_37_335
*1245 FILLER_0_37_337
*1246 FILLER_0_37_349
*1247 FILLER_0_37_39
*1248 FILLER_0_37_51
*1249 FILLER_0_37_55
*1250 FILLER_0_37_57
*1251 FILLER_0_37_69
*1252 FILLER_0_37_81
*1253 FILLER_0_37_87
*1254 FILLER_0_37_92
*1255 FILLER_0_38_101
*1256 FILLER_0_38_11
*1257 FILLER_0_38_110
*1258 FILLER_0_38_119
*1259 FILLER_0_38_124
*1260 FILLER_0_38_131
*1261 FILLER_0_38_139
*1262 FILLER_0_38_141
*1263 FILLER_0_38_146
*1264 FILLER_0_38_156
*1265 FILLER_0_38_161
*1266 FILLER_0_38_167
*1267 FILLER_0_38_201
*1268 FILLER_0_38_21
*1269 FILLER_0_38_216
*1270 FILLER_0_38_225
*1271 FILLER_0_38_237
*1272 FILLER_0_38_249
*1273 FILLER_0_38_253
*1274 FILLER_0_38_265
*1275 FILLER_0_38_277
*1276 FILLER_0_38_281
*1277 FILLER_0_38_29
*1278 FILLER_0_38_293
*1279 FILLER_0_38_3
*1280 FILLER_0_38_303
*1281 FILLER_0_38_307
*1282 FILLER_0_38_312
*1283 FILLER_0_38_318
*1284 FILLER_0_38_322
*1285 FILLER_0_38_329
*1286 FILLER_0_38_335
*1287 FILLER_0_38_337
*1288 FILLER_0_38_349
*1289 FILLER_0_38_36
*1290 FILLER_0_38_44
*1291 FILLER_0_38_48
*1292 FILLER_0_38_53
*1293 FILLER_0_38_61
*1294 FILLER_0_38_69
*1295 FILLER_0_38_75
*1296 FILLER_0_38_80
*1297 FILLER_0_3_105
*1298 FILLER_0_3_111
*1299 FILLER_0_3_113
*1300 FILLER_0_3_125
*1301 FILLER_0_3_137
*1302 FILLER_0_3_149
*1303 FILLER_0_3_15
*1304 FILLER_0_3_161
*1305 FILLER_0_3_167
*1306 FILLER_0_3_169
*1307 FILLER_0_3_181
*1308 FILLER_0_3_193
*1309 FILLER_0_3_205
*1310 FILLER_0_3_217
*1311 FILLER_0_3_223
*1312 FILLER_0_3_225
*1313 FILLER_0_3_237
*1314 FILLER_0_3_249
*1315 FILLER_0_3_261
*1316 FILLER_0_3_27
*1317 FILLER_0_3_273
*1318 FILLER_0_3_279
*1319 FILLER_0_3_281
*1320 FILLER_0_3_293
*1321 FILLER_0_3_3
*1322 FILLER_0_3_305
*1323 FILLER_0_3_317
*1324 FILLER_0_3_329
*1325 FILLER_0_3_335
*1326 FILLER_0_3_337
*1327 FILLER_0_3_349
*1328 FILLER_0_3_39
*1329 FILLER_0_3_51
*1330 FILLER_0_3_55
*1331 FILLER_0_3_57
*1332 FILLER_0_3_69
*1333 FILLER_0_3_81
*1334 FILLER_0_3_93
*1335 FILLER_0_4_109
*1336 FILLER_0_4_121
*1337 FILLER_0_4_133
*1338 FILLER_0_4_139
*1339 FILLER_0_4_141
*1340 FILLER_0_4_15
*1341 FILLER_0_4_153
*1342 FILLER_0_4_165
*1343 FILLER_0_4_177
*1344 FILLER_0_4_189
*1345 FILLER_0_4_195
*1346 FILLER_0_4_197
*1347 FILLER_0_4_209
*1348 FILLER_0_4_221
*1349 FILLER_0_4_233
*1350 FILLER_0_4_245
*1351 FILLER_0_4_251
*1352 FILLER_0_4_253
*1353 FILLER_0_4_265
*1354 FILLER_0_4_27
*1355 FILLER_0_4_277
*1356 FILLER_0_4_289
*1357 FILLER_0_4_29
*1358 FILLER_0_4_3
*1359 FILLER_0_4_301
*1360 FILLER_0_4_307
*1361 FILLER_0_4_309
*1362 FILLER_0_4_321
*1363 FILLER_0_4_333
*1364 FILLER_0_4_345
*1365 FILLER_0_4_41
*1366 FILLER_0_4_53
*1367 FILLER_0_4_65
*1368 FILLER_0_4_77
*1369 FILLER_0_4_83
*1370 FILLER_0_4_85
*1371 FILLER_0_4_97
*1372 FILLER_0_5_105
*1373 FILLER_0_5_111
*1374 FILLER_0_5_113
*1375 FILLER_0_5_125
*1376 FILLER_0_5_137
*1377 FILLER_0_5_149
*1378 FILLER_0_5_15
*1379 FILLER_0_5_161
*1380 FILLER_0_5_167
*1381 FILLER_0_5_169
*1382 FILLER_0_5_181
*1383 FILLER_0_5_193
*1384 FILLER_0_5_205
*1385 FILLER_0_5_217
*1386 FILLER_0_5_223
*1387 FILLER_0_5_225
*1388 FILLER_0_5_237
*1389 FILLER_0_5_249
*1390 FILLER_0_5_261
*1391 FILLER_0_5_27
*1392 FILLER_0_5_273
*1393 FILLER_0_5_279
*1394 FILLER_0_5_281
*1395 FILLER_0_5_293
*1396 FILLER_0_5_3
*1397 FILLER_0_5_305
*1398 FILLER_0_5_317
*1399 FILLER_0_5_329
*1400 FILLER_0_5_335
*1401 FILLER_0_5_337
*1402 FILLER_0_5_349
*1403 FILLER_0_5_39
*1404 FILLER_0_5_51
*1405 FILLER_0_5_55
*1406 FILLER_0_5_57
*1407 FILLER_0_5_69
*1408 FILLER_0_5_81
*1409 FILLER_0_5_93
*1410 FILLER_0_6_109
*1411 FILLER_0_6_121
*1412 FILLER_0_6_133
*1413 FILLER_0_6_139
*1414 FILLER_0_6_141
*1415 FILLER_0_6_15
*1416 FILLER_0_6_153
*1417 FILLER_0_6_165
*1418 FILLER_0_6_177
*1419 FILLER_0_6_189
*1420 FILLER_0_6_195
*1421 FILLER_0_6_197
*1422 FILLER_0_6_209
*1423 FILLER_0_6_221
*1424 FILLER_0_6_233
*1425 FILLER_0_6_245
*1426 FILLER_0_6_251
*1427 FILLER_0_6_253
*1428 FILLER_0_6_265
*1429 FILLER_0_6_27
*1430 FILLER_0_6_277
*1431 FILLER_0_6_289
*1432 FILLER_0_6_29
*1433 FILLER_0_6_3
*1434 FILLER_0_6_301
*1435 FILLER_0_6_307
*1436 FILLER_0_6_309
*1437 FILLER_0_6_321
*1438 FILLER_0_6_333
*1439 FILLER_0_6_345
*1440 FILLER_0_6_41
*1441 FILLER_0_6_53
*1442 FILLER_0_6_65
*1443 FILLER_0_6_77
*1444 FILLER_0_6_83
*1445 FILLER_0_6_85
*1446 FILLER_0_6_97
*1447 FILLER_0_7_105
*1448 FILLER_0_7_111
*1449 FILLER_0_7_113
*1450 FILLER_0_7_125
*1451 FILLER_0_7_137
*1452 FILLER_0_7_149
*1453 FILLER_0_7_15
*1454 FILLER_0_7_161
*1455 FILLER_0_7_167
*1456 FILLER_0_7_169
*1457 FILLER_0_7_181
*1458 FILLER_0_7_193
*1459 FILLER_0_7_205
*1460 FILLER_0_7_217
*1461 FILLER_0_7_223
*1462 FILLER_0_7_225
*1463 FILLER_0_7_237
*1464 FILLER_0_7_249
*1465 FILLER_0_7_261
*1466 FILLER_0_7_27
*1467 FILLER_0_7_273