*SPEF "ieee 1481-1999"
*DESIGN "tt_um_wokwi_374962052813090817"
*DATE "11:11:11 Fri 11 11, 1111"
*VENDOR "OpenRCX"
*PROGRAM "Parallel Extraction"
*VERSION "1.0"
*DESIGN_FLOW "NAME_SCOPE LOCAL" "PIN_CAP NONE"
*DIVIDER /
*DELIMITER :
*BUS_DELIMITER []
*T_UNIT 1 NS
*C_UNIT 1 PF
*R_UNIT 1 OHM
*L_UNIT 1 HENRY

*NAME_MAP
*3 clk
*4 ena
*5 rst_n
*6 ui_in[0]
*7 ui_in[1]
*8 ui_in[2]
*9 ui_in[3]
*10 ui_in[4]
*11 ui_in[5]
*12 ui_in[6]
*13 ui_in[7]
*14 uio_in[0]
*15 uio_in[1]
*16 uio_in[2]
*17 uio_in[3]
*18 uio_in[4]
*19 uio_in[5]
*20 uio_in[6]
*21 uio_in[7]
*22 net10
*23 net11
*24 net12
*25 net13
*26 net14
*27 net15
*28 net16
*29 net17
*30 net18
*31 net19
*32 net20
*33 net21
*34 net22
*35 net23
*36 net24
*37 net25
*38 uo_out[0]
*39 uo_out[1]
*40 uo_out[2]
*41 uo_out[3]
*42 uo_out[4]
*43 uo_out[5]
*44 uo_out[6]
*45 net26
*46 _000_
*47 _001_
*48 _002_
*49 _003_
*50 _004_
*51 _005_
*52 _006_
*53 _007_
*54 _008_
*55 _009_
*56 _010_
*57 _011_
*58 _012_
*59 _013_
*60 _014_
*61 _015_
*62 _016_
*63 _017_
*64 _018_
*65 _019_
*66 _020_
*67 _021_
*68 _022_
*69 _023_
*70 _024_
*71 _025_
*72 _026_
*73 _027_
*74 _028_
*75 _029_
*76 _030_
*77 _031_
*78 _032_
*79 _033_
*80 _034_
*81 _035_
*82 _036_
*83 _037_
*84 _038_
*85 _039_
*86 _040_
*87 _041_
*88 flop1\.d
*89 flop1\.q
*90 flop2\.d
*91 flop2\.q
*92 flop3\.d
*93 flop3\.q
*94 gate3\.out
*95 gate30\.in
*96 gate33\.in
*97 gate34\.in
*98 gate35\.in
*99 gate36\.in
*100 gate37\.in
*101 net1
*102 net2
*103 net27
*104 net3
*105 net4
*106 net5
*107 net6
*108 net7
*109 net8
*110 net9
*111 FILLER_0_0_109
*112 FILLER_0_0_113
*113 FILLER_0_0_125
*114 FILLER_0_0_137
*115 FILLER_0_0_141
*116 FILLER_0_0_15
*117 FILLER_0_0_153
*118 FILLER_0_0_165
*119 FILLER_0_0_169
*120 FILLER_0_0_181
*121 FILLER_0_0_193
*122 FILLER_0_0_197
*123 FILLER_0_0_209
*124 FILLER_0_0_221
*125 FILLER_0_0_225
*126 FILLER_0_0_237
*127 FILLER_0_0_249
*128 FILLER_0_0_253
*129 FILLER_0_0_265
*130 FILLER_0_0_27
*131 FILLER_0_0_277
*132 FILLER_0_0_281
*133 FILLER_0_0_29
*134 FILLER_0_0_293
*135 FILLER_0_0_3
*136 FILLER_0_0_305
*137 FILLER_0_0_309
*138 FILLER_0_0_321
*139 FILLER_0_0_333
*140 FILLER_0_0_337
*141 FILLER_0_0_349
*142 FILLER_0_0_41
*143 FILLER_0_0_53
*144 FILLER_0_0_57
*145 FILLER_0_0_69
*146 FILLER_0_0_81
*147 FILLER_0_0_85
*148 FILLER_0_0_97
*149 FILLER_0_10_109
*150 FILLER_0_10_121
*151 FILLER_0_10_133
*152 FILLER_0_10_139
*153 FILLER_0_10_141
*154 FILLER_0_10_15
*155 FILLER_0_10_153
*156 FILLER_0_10_165
*157 FILLER_0_10_177
*158 FILLER_0_10_189
*159 FILLER_0_10_195
*160 FILLER_0_10_197
*161 FILLER_0_10_209
*162 FILLER_0_10_221
*163 FILLER_0_10_233
*164 FILLER_0_10_245
*165 FILLER_0_10_251
*166 FILLER_0_10_253
*167 FILLER_0_10_265
*168 FILLER_0_10_27
*169 FILLER_0_10_277
*170 FILLER_0_10_289
*171 FILLER_0_10_29
*172 FILLER_0_10_3
*173 FILLER_0_10_301
*174 FILLER_0_10_307
*175 FILLER_0_10_309
*176 FILLER_0_10_321
*177 FILLER_0_10_333
*178 FILLER_0_10_345
*179 FILLER_0_10_41
*180 FILLER_0_10_53
*181 FILLER_0_10_65
*182 FILLER_0_10_77
*183 FILLER_0_10_83
*184 FILLER_0_10_85
*185 FILLER_0_10_97
*186 FILLER_0_11_105
*187 FILLER_0_11_111
*188 FILLER_0_11_113
*189 FILLER_0_11_125
*190 FILLER_0_11_137
*191 FILLER_0_11_149
*192 FILLER_0_11_15
*193 FILLER_0_11_161
*194 FILLER_0_11_167
*195 FILLER_0_11_169
*196 FILLER_0_11_181
*197 FILLER_0_11_193
*198 FILLER_0_11_205
*199 FILLER_0_11_217
*200 FILLER_0_11_223
*201 FILLER_0_11_225
*202 FILLER_0_11_237
*203 FILLER_0_11_249
*204 FILLER_0_11_261
*205 FILLER_0_11_27
*206 FILLER_0_11_273
*207 FILLER_0_11_279
*208 FILLER_0_11_281
*209 FILLER_0_11_293
*210 FILLER_0_11_3
*211 FILLER_0_11_305
*212 FILLER_0_11_317
*213 FILLER_0_11_329
*214 FILLER_0_11_335
*215 FILLER_0_11_337
*216 FILLER_0_11_349
*217 FILLER_0_11_39
*218 FILLER_0_11_51
*219 FILLER_0_11_55
*220 FILLER_0_11_57
*221 FILLER_0_11_69
*222 FILLER_0_11_81
*223 FILLER_0_11_93
*224 FILLER_0_12_109
*225 FILLER_0_12_121
*226 FILLER_0_12_133
*227 FILLER_0_12_139
*228 FILLER_0_12_141
*229 FILLER_0_12_15
*230 FILLER_0_12_153
*231 FILLER_0_12_165
*232 FILLER_0_12_177
*233 FILLER_0_12_189
*234 FILLER_0_12_195
*235 FILLER_0_12_197
*236 FILLER_0_12_209
*237 FILLER_0_12_221
*238 FILLER_0_12_233
*239 FILLER_0_12_245
*240 FILLER_0_12_251
*241 FILLER_0_12_253
*242 FILLER_0_12_265
*243 FILLER_0_12_27
*244 FILLER_0_12_277
*245 FILLER_0_12_289
*246 FILLER_0_12_29
*247 FILLER_0_12_3
*248 FILLER_0_12_301
*249 FILLER_0_12_307
*250 FILLER_0_12_309
*251 FILLER_0_12_321
*252 FILLER_0_12_333
*253 FILLER_0_12_345
*254 FILLER_0_12_41
*255 FILLER_0_12_53
*256 FILLER_0_12_65
*257 FILLER_0_12_77
*258 FILLER_0_12_83
*259 FILLER_0_12_85
*260 FILLER_0_12_97
*261 FILLER_0_13_105
*262 FILLER_0_13_111
*263 FILLER_0_13_113
*264 FILLER_0_13_125
*265 FILLER_0_13_137
*266 FILLER_0_13_149
*267 FILLER_0_13_15
*268 FILLER_0_13_161
*269 FILLER_0_13_167
*270 FILLER_0_13_169
*271 FILLER_0_13_181
*272 FILLER_0_13_193
*273 FILLER_0_13_205
*274 FILLER_0_13_217
*275 FILLER_0_13_223
*276 FILLER_0_13_225
*277 FILLER_0_13_237
*278 FILLER_0_13_249
*279 FILLER_0_13_261
*280 FILLER_0_13_27
*281 FILLER_0_13_273
*282 FILLER_0_13_279
*283 FILLER_0_13_281
*284 FILLER_0_13_293
*285 FILLER_0_13_3
*286 FILLER_0_13_305
*287 FILLER_0_13_317
*288 FILLER_0_13_329
*289 FILLER_0_13_335
*290 FILLER_0_13_337
*291 FILLER_0_13_349
*292 FILLER_0_13_39
*293 FILLER_0_13_51
*294 FILLER_0_13_55
*295 FILLER_0_13_57
*296 FILLER_0_13_69
*297 FILLER_0_13_81
*298 FILLER_0_13_93
*299 FILLER_0_14_109
*300 FILLER_0_14_121
*301 FILLER_0_14_133
*302 FILLER_0_14_139
*303 FILLER_0_14_141
*304 FILLER_0_14_15
*305 FILLER_0_14_153
*306 FILLER_0_14_165
*307 FILLER_0_14_177
*308 FILLER_0_14_189
*309 FILLER_0_14_195
*310 FILLER_0_14_197
*311 FILLER_0_14_209
*312 FILLER_0_14_221
*313 FILLER_0_14_233
*314 FILLER_0_14_245
*315 FILLER_0_14_251
*316 FILLER_0_14_253
*317 FILLER_0_14_265
*318 FILLER_0_14_27
*319 FILLER_0_14_277
*320 FILLER_0_14_289
*321 FILLER_0_14_29
*322 FILLER_0_14_3
*323 FILLER_0_14_301
*324 FILLER_0_14_307
*325 FILLER_0_14_309
*326 FILLER_0_14_321
*327 FILLER_0_14_333
*328 FILLER_0_14_345
*329 FILLER_0_14_41
*330 FILLER_0_14_53
*331 FILLER_0_14_65
*332 FILLER_0_14_77
*333 FILLER_0_14_83
*334 FILLER_0_14_85
*335 FILLER_0_14_97
*336 FILLER_0_15_105
*337 FILLER_0_15_111
*338 FILLER_0_15_113
*339 FILLER_0_15_125
*340 FILLER_0_15_137
*341 FILLER_0_15_149
*342 FILLER_0_15_15
*343 FILLER_0_15_161
*344 FILLER_0_15_167
*345 FILLER_0_15_169
*346 FILLER_0_15_181
*347 FILLER_0_15_193
*348 FILLER_0_15_205
*349 FILLER_0_15_217
*350 FILLER_0_15_223
*351 FILLER_0_15_225
*352 FILLER_0_15_237
*353 FILLER_0_15_249
*354 FILLER_0_15_261
*355 FILLER_0_15_27
*356 FILLER_0_15_273
*357 FILLER_0_15_279
*358 FILLER_0_15_281
*359 FILLER_0_15_293
*360 FILLER_0_15_3
*361 FILLER_0_15_305
*362 FILLER_0_15_317
*363 FILLER_0_15_329
*364 FILLER_0_15_335
*365 FILLER_0_15_337
*366 FILLER_0_15_349
*367 FILLER_0_15_39
*368 FILLER_0_15_51
*369 FILLER_0_15_55
*370 FILLER_0_15_57
*371 FILLER_0_15_69
*372 FILLER_0_15_81
*373 FILLER_0_15_93
*374 FILLER_0_16_109
*375 FILLER_0_16_121
*376 FILLER_0_16_133
*377 FILLER_0_16_139
*378 FILLER_0_16_141
*379 FILLER_0_16_15
*380 FILLER_0_16_153
*381 FILLER_0_16_165
*382 FILLER_0_16_177
*383 FILLER_0_16_189
*384 FILLER_0_16_195
*385 FILLER_0_16_197
*386 FILLER_0_16_209
*387 FILLER_0_16_221
*388 FILLER_0_16_233
*389 FILLER_0_16_245
*390 FILLER_0_16_251
*391 FILLER_0_16_253
*392 FILLER_0_16_265
*393 FILLER_0_16_27
*394 FILLER_0_16_277
*395 FILLER_0_16_289
*396 FILLER_0_16_29
*397 FILLER_0_16_3
*398 FILLER_0_16_301
*399 FILLER_0_16_307
*400 FILLER_0_16_309
*401 FILLER_0_16_321
*402 FILLER_0_16_333
*403 FILLER_0_16_345
*404 FILLER_0_16_41
*405 FILLER_0_16_53
*406 FILLER_0_16_65
*407 FILLER_0_16_77
*408 FILLER_0_16_83
*409 FILLER_0_16_85
*410 FILLER_0_16_97
*411 FILLER_0_17_105
*412 FILLER_0_17_111
*413 FILLER_0_17_113
*414 FILLER_0_17_125
*415 FILLER_0_17_137
*416 FILLER_0_17_149
*417 FILLER_0_17_15
*418 FILLER_0_17_161
*419 FILLER_0_17_167
*420 FILLER_0_17_169
*421 FILLER_0_17_181
*422 FILLER_0_17_193
*423 FILLER_0_17_205
*424 FILLER_0_17_217
*425 FILLER_0_17_223
*426 FILLER_0_17_225
*427 FILLER_0_17_237
*428 FILLER_0_17_249
*429 FILLER_0_17_261
*430 FILLER_0_17_27
*431 FILLER_0_17_273
*432 FILLER_0_17_279
*433 FILLER_0_17_281
*434 FILLER_0_17_293
*435 FILLER_0_17_3
*436 FILLER_0_17_305
*437 FILLER_0_17_317
*438 FILLER_0_17_329
*439 FILLER_0_17_335
*440 FILLER_0_17_337
*441 FILLER_0_17_349
*442 FILLER_0_17_39
*443 FILLER_0_17_51
*444 FILLER_0_17_55
*445 FILLER_0_17_57
*446 FILLER_0_17_69
*447 FILLER_0_17_81
*448 FILLER_0_17_93
*449 FILLER_0_18_109
*450 FILLER_0_18_121
*451 FILLER_0_18_133
*452 FILLER_0_18_139
*453 FILLER_0_18_141
*454 FILLER_0_18_15
*455 FILLER_0_18_153
*456 FILLER_0_18_165
*457 FILLER_0_18_177
*458 FILLER_0_18_189
*459 FILLER_0_18_195
*460 FILLER_0_18_197
*461 FILLER_0_18_209
*462 FILLER_0_18_221
*463 FILLER_0_18_233
*464 FILLER_0_18_245
*465 FILLER_0_18_251
*466 FILLER_0_18_253
*467 FILLER_0_18_265
*468 FILLER_0_18_27
*469 FILLER_0_18_277
*470 FILLER_0_18_289
*471 FILLER_0_18_29
*472 FILLER_0_18_3
*473 FILLER_0_18_301
*474 FILLER_0_18_307
*475 FILLER_0_18_309
*476 FILLER_0_18_321
*477 FILLER_0_18_333
*478 FILLER_0_18_345
*479 FILLER_0_18_41
*480 FILLER_0_18_53
*481 FILLER_0_18_65
*482 FILLER_0_18_77
*483 FILLER_0_18_83
*484 FILLER_0_18_85
*485 FILLER_0_18_97
*486 FILLER_0_19_105
*487 FILLER_0_19_111
*488 FILLER_0_19_113
*489 FILLER_0_19_125
*490 FILLER_0_19_137
*491 FILLER_0_19_149
*492 FILLER_0_19_15
*493 FILLER_0_19_161
*494 FILLER_0_19_167
*495 FILLER_0_19_169
*496 FILLER_0_19_181
*497 FILLER_0_19_193
*498 FILLER_0_19_205
*499 FILLER_0_19_217
*500 FILLER_0_19_223
*501 FILLER_0_19_225
*502 FILLER_0_19_237
*503 FILLER_0_19_249
*504 FILLER_0_19_261
*505 FILLER_0_19_27
*506 FILLER_0_19_273
*507 FILLER_0_19_279
*508 FILLER_0_19_281
*509 FILLER_0_19_293
*510 FILLER_0_19_3
*511 FILLER_0_19_305
*512 FILLER_0_19_317
*513 FILLER_0_19_329
*514 FILLER_0_19_335
*515 FILLER_0_19_337
*516 FILLER_0_19_349
*517 FILLER_0_19_39
*518 FILLER_0_19_51
*519 FILLER_0_19_55
*520 FILLER_0_19_57
*521 FILLER_0_19_69
*522 FILLER_0_19_81
*523 FILLER_0_19_93
*524 FILLER_0_1_105
*525 FILLER_0_1_111
*526 FILLER_0_1_113
*527 FILLER_0_1_125
*528 FILLER_0_1_137
*529 FILLER_0_1_149
*530 FILLER_0_1_15
*531 FILLER_0_1_161
*532 FILLER_0_1_167
*533 FILLER_0_1_169
*534 FILLER_0_1_181
*535 FILLER_0_1_193
*536 FILLER_0_1_205
*537 FILLER_0_1_217
*538 FILLER_0_1_223
*539 FILLER_0_1_225
*540 FILLER_0_1_237
*541 FILLER_0_1_249
*542 FILLER_0_1_261
*543 FILLER_0_1_27
*544 FILLER_0_1_273
*545 FILLER_0_1_279
*546 FILLER_0_1_281
*547 FILLER_0_1_293
*548 FILLER_0_1_3
*549 FILLER_0_1_305
*550 FILLER_0_1_317
*551 FILLER_0_1_329
*552 FILLER_0_1_335
*553 FILLER_0_1_337
*554 FILLER_0_1_349
*555 FILLER_0_1_39
*556 FILLER_0_1_51
*557 FILLER_0_1_55
*558 FILLER_0_1_57
*559 FILLER_0_1_69
*560 FILLER_0_1_81
*561 FILLER_0_1_93
*562 FILLER_0_20_109
*563 FILLER_0_20_121
*564 FILLER_0_20_133
*565 FILLER_0_20_139
*566 FILLER_0_20_141
*567 FILLER_0_20_15
*568 FILLER_0_20_153
*569 FILLER_0_20_165
*570 FILLER_0_20_177
*571 FILLER_0_20_189
*572 FILLER_0_20_195
*573 FILLER_0_20_197
*574 FILLER_0_20_209
*575 FILLER_0_20_221
*576 FILLER_0_20_233
*577 FILLER_0_20_245
*578 FILLER_0_20_251
*579 FILLER_0_20_253
*580 FILLER_0_20_265
*581 FILLER_0_20_27
*582 FILLER_0_20_277
*583 FILLER_0_20_289
*584 FILLER_0_20_29
*585 FILLER_0_20_3
*586 FILLER_0_20_301
*587 FILLER_0_20_307
*588 FILLER_0_20_309
*589 FILLER_0_20_321
*590 FILLER_0_20_333
*591 FILLER_0_20_345
*592 FILLER_0_20_41
*593 FILLER_0_20_53
*594 FILLER_0_20_65
*595 FILLER_0_20_77
*596 FILLER_0_20_83
*597 FILLER_0_20_85
*598 FILLER_0_20_97
*599 FILLER_0_21_105
*600 FILLER_0_21_111
*601 FILLER_0_21_113
*602 FILLER_0_21_125
*603 FILLER_0_21_137
*604 FILLER_0_21_149
*605 FILLER_0_21_15
*606 FILLER_0_21_161
*607 FILLER_0_21_167
*608 FILLER_0_21_169
*609 FILLER_0_21_181
*610 FILLER_0_21_193
*611 FILLER_0_21_205
*612 FILLER_0_21_217
*613 FILLER_0_21_223
*614 FILLER_0_21_225
*615 FILLER_0_21_237
*616 FILLER_0_21_249
*617 FILLER_0_21_261
*618 FILLER_0_21_27
*619 FILLER_0_21_273
*620 FILLER_0_21_279
*621 FILLER_0_21_281
*622 FILLER_0_21_293
*623 FILLER_0_21_3
*624 FILLER_0_21_305
*625 FILLER_0_21_317
*626 FILLER_0_21_329
*627 FILLER_0_21_335
*628 FILLER_0_21_337
*629 FILLER_0_21_349
*630 FILLER_0_21_39
*631 FILLER_0_21_51
*632 FILLER_0_21_55
*633 FILLER_0_21_57
*634 FILLER_0_21_69
*635 FILLER_0_21_81
*636 FILLER_0_21_93
*637 FILLER_0_22_109
*638 FILLER_0_22_121
*639 FILLER_0_22_133
*640 FILLER_0_22_139
*641 FILLER_0_22_141
*642 FILLER_0_22_15
*643 FILLER_0_22_153
*644 FILLER_0_22_165
*645 FILLER_0_22_177
*646 FILLER_0_22_189
*647 FILLER_0_22_195
*648 FILLER_0_22_197
*649 FILLER_0_22_209
*650 FILLER_0_22_221
*651 FILLER_0_22_233
*652 FILLER_0_22_245
*653 FILLER_0_22_251
*654 FILLER_0_22_253
*655 FILLER_0_22_265
*656 FILLER_0_22_27
*657 FILLER_0_22_277
*658 FILLER_0_22_289
*659 FILLER_0_22_29
*660 FILLER_0_22_3
*661 FILLER_0_22_301
*662 FILLER_0_22_307
*663 FILLER_0_22_309
*664 FILLER_0_22_321
*665 FILLER_0_22_333
*666 FILLER_0_22_345
*667 FILLER_0_22_41
*668 FILLER_0_22_53
*669 FILLER_0_22_65
*670 FILLER_0_22_77
*671 FILLER_0_22_83
*672 FILLER_0_22_85
*673 FILLER_0_22_97
*674 FILLER_0_23_105
*675 FILLER_0_23_111
*676 FILLER_0_23_113
*677 FILLER_0_23_125
*678 FILLER_0_23_137
*679 FILLER_0_23_149
*680 FILLER_0_23_15
*681 FILLER_0_23_161
*682 FILLER_0_23_167
*683 FILLER_0_23_169
*684 FILLER_0_23_181
*685 FILLER_0_23_193
*686 FILLER_0_23_205
*687 FILLER_0_23_217
*688 FILLER_0_23_223
*689 FILLER_0_23_225
*690 FILLER_0_23_237
*691 FILLER_0_23_249
*692 FILLER_0_23_261
*693 FILLER_0_23_27
*694 FILLER_0_23_273
*695 FILLER_0_23_279
*696 FILLER_0_23_281
*697 FILLER_0_23_293
*698 FILLER_0_23_3
*699 FILLER_0_23_305
*700 FILLER_0_23_317
*701 FILLER_0_23_329
*702 FILLER_0_23_335
*703 FILLER_0_23_337
*704 FILLER_0_23_349
*705 FILLER_0_23_39
*706 FILLER_0_23_51
*707 FILLER_0_23_55
*708 FILLER_0_23_57
*709 FILLER_0_23_69
*710 FILLER_0_23_81
*711 FILLER_0_23_93
*712 FILLER_0_24_109
*713 FILLER_0_24_121
*714 FILLER_0_24_133
*715 FILLER_0_24_139
*716 FILLER_0_24_141
*717 FILLER_0_24_15
*718 FILLER_0_24_153
*719 FILLER_0_24_165
*720 FILLER_0_24_177
*721 FILLER_0_24_189
*722 FILLER_0_24_195
*723 FILLER_0_24_197
*724 FILLER_0_24_209
*725 FILLER_0_24_221
*726 FILLER_0_24_233
*727 FILLER_0_24_245
*728 FILLER_0_24_251
*729 FILLER_0_24_253
*730 FILLER_0_24_265
*731 FILLER_0_24_27
*732 FILLER_0_24_277
*733 FILLER_0_24_289
*734 FILLER_0_24_29
*735 FILLER_0_24_3
*736 FILLER_0_24_301
*737 FILLER_0_24_307
*738 FILLER_0_24_309
*739 FILLER_0_24_321
*740 FILLER_0_24_333
*741 FILLER_0_24_345
*742 FILLER_0_24_41
*743 FILLER_0_24_53
*744 FILLER_0_24_65
*745 FILLER_0_24_77
*746 FILLER_0_24_83
*747 FILLER_0_24_85
*748 FILLER_0_24_97
*749 FILLER_0_25_105
*750 FILLER_0_25_111
*751 FILLER_0_25_113
*752 FILLER_0_25_125
*753 FILLER_0_25_137
*754 FILLER_0_25_149
*755 FILLER_0_25_15
*756 FILLER_0_25_161
*757 FILLER_0_25_167
*758 FILLER_0_25_169
*759 FILLER_0_25_181
*760 FILLER_0_25_193
*761 FILLER_0_25_205
*762 FILLER_0_25_217
*763 FILLER_0_25_223
*764 FILLER_0_25_225
*765 FILLER_0_25_237
*766 FILLER_0_25_249
*767 FILLER_0_25_261
*768 FILLER_0_25_27
*769 FILLER_0_25_273
*770 FILLER_0_25_279
*771 FILLER_0_25_281
*772 FILLER_0_25_293
*773 FILLER_0_25_3
*774 FILLER_0_25_305
*775 FILLER_0_25_317
*776 FILLER_0_25_329
*777 FILLER_0_25_335
*778 FILLER_0_25_337
*779 FILLER_0_25_349
*780 FILLER_0_25_39
*781 FILLER_0_25_51
*782 FILLER_0_25_55
*783 FILLER_0_25_57
*784 FILLER_0_25_69
*785 FILLER_0_25_81
*786 FILLER_0_25_93
*787 FILLER_0_26_109
*788 FILLER_0_26_121
*789 FILLER_0_26_133
*790 FILLER_0_26_139
*791 FILLER_0_26_141
*792 FILLER_0_26_15
*793 FILLER_0_26_153
*794 FILLER_0_26_165
*795 FILLER_0_26_177
*796 FILLER_0_26_189
*797 FILLER_0_26_195
*798 FILLER_0_26_197
*799 FILLER_0_26_209
*800 FILLER_0_26_221
*801 FILLER_0_26_233
*802 FILLER_0_26_245
*803 FILLER_0_26_251
*804 FILLER_0_26_253
*805 FILLER_0_26_265
*806 FILLER_0_26_27
*807 FILLER_0_26_277
*808 FILLER_0_26_289
*809 FILLER_0_26_29
*810 FILLER_0_26_3
*811 FILLER_0_26_301
*812 FILLER_0_26_307
*813 FILLER_0_26_309
*814 FILLER_0_26_321
*815 FILLER_0_26_333
*816 FILLER_0_26_345
*817 FILLER_0_26_41
*818 FILLER_0_26_53
*819 FILLER_0_26_65
*820 FILLER_0_26_77
*821 FILLER_0_26_83
*822 FILLER_0_26_85
*823 FILLER_0_26_97
*824 FILLER_0_27_105
*825 FILLER_0_27_111
*826 FILLER_0_27_113
*827 FILLER_0_27_125
*828 FILLER_0_27_137
*829 FILLER_0_27_149
*830 FILLER_0_27_15
*831 FILLER_0_27_161
*832 FILLER_0_27_167
*833 FILLER_0_27_169
*834 FILLER_0_27_181
*835 FILLER_0_27_193
*836 FILLER_0_27_205
*837 FILLER_0_27_217
*838 FILLER_0_27_223
*839 FILLER_0_27_225
*840 FILLER_0_27_237
*841 FILLER_0_27_249
*842 FILLER_0_27_261
*843 FILLER_0_27_27
*844 FILLER_0_27_273
*845 FILLER_0_27_279
*846 FILLER_0_27_281
*847 FILLER_0_27_293
*848 FILLER_0_27_3
*849 FILLER_0_27_305
*850 FILLER_0_27_317
*851 FILLER_0_27_329
*852 FILLER_0_27_335
*853 FILLER_0_27_337
*854 FILLER_0_27_349
*855 FILLER_0_27_39
*856 FILLER_0_27_51
*857 FILLER_0_27_55
*858 FILLER_0_27_57
*859 FILLER_0_27_69
*860 FILLER_0_27_81
*861 FILLER_0_27_93
*862 FILLER_0_28_109
*863 FILLER_0_28_121
*864 FILLER_0_28_133
*865 FILLER_0_28_139
*866 FILLER_0_28_141
*867 FILLER_0_28_15
*868 FILLER_0_28_153
*869 FILLER_0_28_165
*870 FILLER_0_28_177
*871 FILLER_0_28_189
*872 FILLER_0_28_195
*873 FILLER_0_28_197
*874 FILLER_0_28_209
*875 FILLER_0_28_221
*876 FILLER_0_28_233
*877 FILLER_0_28_245
*878 FILLER_0_28_251
*879 FILLER_0_28_253
*880 FILLER_0_28_265
*881 FILLER_0_28_27
*882 FILLER_0_28_277
*883 FILLER_0_28_289
*884 FILLER_0_28_29
*885 FILLER_0_28_3
*886 FILLER_0_28_301
*887 FILLER_0_28_307
*888 FILLER_0_28_309
*889 FILLER_0_28_321
*890 FILLER_0_28_333
*891 FILLER_0_28_345
*892 FILLER_0_28_41
*893 FILLER_0_28_53
*894 FILLER_0_28_65
*895 FILLER_0_28_77
*896 FILLER_0_28_83
*897 FILLER_0_28_85
*898 FILLER_0_28_97
*899 FILLER_0_29_105
*900 FILLER_0_29_111
*901 FILLER_0_29_113
*902 FILLER_0_29_125
*903 FILLER_0_29_137
*904 FILLER_0_29_149
*905 FILLER_0_29_15
*906 FILLER_0_29_161
*907 FILLER_0_29_167
*908 FILLER_0_29_169
*909 FILLER_0_29_181
*910 FILLER_0_29_193
*911 FILLER_0_29_205
*912 FILLER_0_29_217
*913 FILLER_0_29_223
*914 FILLER_0_29_225
*915 FILLER_0_29_237
*916 FILLER_0_29_249
*917 FILLER_0_29_261
*918 FILLER_0_29_27
*919 FILLER_0_29_273
*920 FILLER_0_29_279
*921 FILLER_0_29_281
*922 FILLER_0_29_293
*923 FILLER_0_29_3
*924 FILLER_0_29_305
*925 FILLER_0_29_317
*926 FILLER_0_29_329
*927 FILLER_0_29_335
*928 FILLER_0_29_337
*929 FILLER_0_29_349
*930 FILLER_0_29_39
*931 FILLER_0_29_51
*932 FILLER_0_29_55
*933 FILLER_0_29_57
*934 FILLER_0_29_69
*935 FILLER_0_29_81
*936 FILLER_0_29_93
*937 FILLER_0_2_109
*938 FILLER_0_2_121
*939 FILLER_0_2_133
*940 FILLER_0_2_139
*941 FILLER_0_2_141
*942 FILLER_0_2_15
*943 FILLER_0_2_153
*944 FILLER_0_2_165
*945 FILLER_0_2_177
*946 FILLER_0_2_189
*947 FILLER_0_2_195
*948 FILLER_0_2_197
*949 FILLER_0_2_209
*950 FILLER_0_2_221
*951 FILLER_0_2_233
*952 FILLER_0_2_245
*953 FILLER_0_2_251
*954 FILLER_0_2_253
*955 FILLER_0_2_265
*956 FILLER_0_2_27
*957 FILLER_0_2_277
*958 FILLER_0_2_289
*959 FILLER_0_2_29
*960 FILLER_0_2_3
*961 FILLER_0_2_301
*962 FILLER_0_2_307
*963 FILLER_0_2_309
*964 FILLER_0_2_321
*965 FILLER_0_2_333
*966 FILLER_0_2_345
*967 FILLER_0_2_41
*968 FILLER_0_2_53
*969 FILLER_0_2_65
*970 FILLER_0_2_77
*971 FILLER_0_2_83
*972 FILLER_0_2_85
*973 FILLER_0_2_97
*974 FILLER_0_30_109
*975 FILLER_0_30_121
*976 FILLER_0_30_133
*977 FILLER_0_30_139
*978 FILLER_0_30_141
*979 FILLER_0_30_15
*980 FILLER_0_30_153
*981 FILLER_0_30_165
*982 FILLER_0_30_177
*983 FILLER_0_30_189
*984 FILLER_0_30_195
*985 FILLER_0_30_197
*986 FILLER_0_30_209
*987 FILLER_0_30_221
*988 FILLER_0_30_233
*989 FILLER_0_30_245
*990 FILLER_0_30_251
*991 FILLER_0_30_253
*992 FILLER_0_30_265
*993 FILLER_0_30_27
*994 FILLER_0_30_277
*995 FILLER_0_30_289
*996 FILLER_0_30_29
*997 FILLER_0_30_3
*998 FILLER_0_30_301
*999 FILLER_0_30_307
*1000 FILLER_0_30_309
*1001 FILLER_0_30_321
*1002 FILLER_0_30_333
*1003 FILLER_0_30_345
*1004 FILLER_0_30_41
*1005 FILLER_0_30_53
*1006 FILLER_0_30_65
*1007 FILLER_0_30_77
*1008 FILLER_0_30_83
*1009 FILLER_0_30_85
*1010 FILLER_0_30_97
*1011 FILLER_0_31_105
*1012 FILLER_0_31_111
*1013 FILLER_0_31_113
*1014 FILLER_0_31_125
*1015 FILLER_0_31_137
*1016 FILLER_0_31_149
*1017 FILLER_0_31_15
*1018 FILLER_0_31_161
*1019 FILLER_0_31_167
*1020 FILLER_0_31_169
*1021 FILLER_0_31_181
*1022 FILLER_0_31_193
*1023 FILLER_0_31_205
*1024 FILLER_0_31_217
*1025 FILLER_0_31_223
*1026 FILLER_0_31_225
*1027 FILLER_0_31_237
*1028 FILLER_0_31_249
*1029 FILLER_0_31_261
*1030 FILLER_0_31_27
*1031 FILLER_0_31_273
*1032 FILLER_0_31_279
*1033 FILLER_0_31_281
*1034 FILLER_0_31_293
*1035 FILLER_0_31_3
*1036 FILLER_0_31_305
*1037 FILLER_0_31_317
*1038 FILLER_0_31_329
*1039 FILLER_0_31_335
*1040 FILLER_0_31_337
*1041 FILLER_0_31_349
*1042 FILLER_0_31_39
*1043 FILLER_0_31_51
*1044 FILLER_0_31_55
*1045 FILLER_0_31_57
*1046 FILLER_0_31_69
*1047 FILLER_0_31_81
*1048 FILLER_0_31_93
*1049 FILLER_0_32_109
*1050 FILLER_0_32_121
*1051 FILLER_0_32_133
*1052 FILLER_0_32_139
*1053 FILLER_0_32_141
*1054 FILLER_0_32_15
*1055 FILLER_0_32_153
*1056 FILLER_0_32_165
*1057 FILLER_0_32_177
*1058 FILLER_0_32_189
*1059 FILLER_0_32_195
*1060 FILLER_0_32_197
*1061 FILLER_0_32_209
*1062 FILLER_0_32_221
*1063 FILLER_0_32_233
*1064 FILLER_0_32_245
*1065 FILLER_0_32_251
*1066 FILLER_0_32_253
*1067 FILLER_0_32_265
*1068 FILLER_0_32_27
*1069 FILLER_0_32_277
*1070 FILLER_0_32_289
*1071 FILLER_0_32_29
*1072 FILLER_0_32_3
*1073 FILLER_0_32_301
*1074 FILLER_0_32_307
*1075 FILLER_0_32_309
*1076 FILLER_0_32_321
*1077 FILLER_0_32_333
*1078 FILLER_0_32_345
*1079 FILLER_0_32_41
*1080 FILLER_0_32_53
*1081 FILLER_0_32_65
*1082 FILLER_0_32_77
*1083 FILLER_0_32_83
*1084 FILLER_0_32_85
*1085 FILLER_0_32_97
*1086 FILLER_0_33_105
*1087 FILLER_0_33_111
*1088 FILLER_0_33_113
*1089 FILLER_0_33_125
*1090 FILLER_0_33_137
*1091 FILLER_0_33_149
*1092 FILLER_0_33_15
*1093 FILLER_0_33_161
*1094 FILLER_0_33_167
*1095 FILLER_0_33_169
*1096 FILLER_0_33_181
*1097 FILLER_0_33_193
*1098 FILLER_0_33_205
*1099 FILLER_0_33_217
*1100 FILLER_0_33_223
*1101 FILLER_0_33_225
*1102 FILLER_0_33_237
*1103 FILLER_0_33_249
*1104 FILLER_0_33_261
*1105 FILLER_0_33_27
*1106 FILLER_0_33_273
*1107 FILLER_0_33_279
*1108 FILLER_0_33_281
*1109 FILLER_0_33_293
*1110 FILLER_0_33_3
*1111 FILLER_0_33_305
*1112 FILLER_0_33_317
*1113 FILLER_0_33_329
*1114 FILLER_0_33_335
*1115 FILLER_0_33_337
*1116 FILLER_0_33_349
*1117 FILLER_0_33_39
*1118 FILLER_0_33_51
*1119 FILLER_0_33_55
*1120 FILLER_0_33_57
*1121 FILLER_0_33_69
*1122 FILLER_0_33_81
*1123 FILLER_0_33_93
*1124 FILLER_0_34_109
*1125 FILLER_0_34_121
*1126 FILLER_0_34_133
*1127 FILLER_0_34_139
*1128 FILLER_0_34_141
*1129 FILLER_0_34_15
*1130 FILLER_0_34_153
*1131 FILLER_0_34_165
*1132 FILLER_0_34_177
*1133 FILLER_0_34_189
*1134 FILLER_0_34_195
*1135 FILLER_0_34_200
*1136 FILLER_0_34_212
*1137 FILLER_0_34_224
*1138 FILLER_0_34_232
*1139 FILLER_0_34_244
*1140 FILLER_0_34_250
*1141 FILLER_0_34_253
*1142 FILLER_0_34_27
*1143 FILLER_0_34_282
*1144 FILLER_0_34_29
*1145 FILLER_0_34_294
*1146 FILLER_0_34_3
*1147 FILLER_0_34_306
*1148 FILLER_0_34_309
*1149 FILLER_0_34_321
*1150 FILLER_0_34_333
*1151 FILLER_0_34_345
*1152 FILLER_0_34_41
*1153 FILLER_0_34_53
*1154 FILLER_0_34_65
*1155 FILLER_0_34_77
*1156 FILLER_0_34_83
*1157 FILLER_0_34_85
*1158 FILLER_0_34_97
*1159 FILLER_0_35_105
*1160 FILLER_0_35_111
*1161 FILLER_0_35_113
*1162 FILLER_0_35_125
*1163 FILLER_0_35_137
*1164 FILLER_0_35_149
*1165 FILLER_0_35_15
*1166 FILLER_0_35_161
*1167 FILLER_0_35_167
*1168 FILLER_0_35_169
*1169 FILLER_0_35_175
*1170 FILLER_0_35_180
*1171 FILLER_0_35_209
*1172 FILLER_0_35_221
*1173 FILLER_0_35_225
*1174 FILLER_0_35_236
*1175 FILLER_0_35_251
*1176 FILLER_0_35_263
*1177 FILLER_0_35_27
*1178 FILLER_0_35_271
*1179 FILLER_0_35_3
*1180 FILLER_0_35_304
*1181 FILLER_0_35_316
*1182 FILLER_0_35_328
*1183 FILLER_0_35_337
*1184 FILLER_0_35_349
*1185 FILLER_0_35_39
*1186 FILLER_0_35_51
*1187 FILLER_0_35_55
*1188 FILLER_0_35_57
*1189 FILLER_0_35_69
*1190 FILLER_0_35_81
*1191 FILLER_0_35_93
*1192 FILLER_0_36_109
*1193 FILLER_0_36_121
*1194 FILLER_0_36_133
*1195 FILLER_0_36_139
*1196 FILLER_0_36_141
*1197 FILLER_0_36_15
*1198 FILLER_0_36_153
*1199 FILLER_0_36_165
*1200 FILLER_0_36_177
*1201 FILLER_0_36_188
*1202 FILLER_0_36_200
*1203 FILLER_0_36_212
*1204 FILLER_0_36_223
*1205 FILLER_0_36_235
*1206 FILLER_0_36_239
*1207 FILLER_0_36_247
*1208 FILLER_0_36_251
*1209 FILLER_0_36_258
*1210 FILLER_0_36_27
*1211 FILLER_0_36_271
*1212 FILLER_0_36_286
*1213 FILLER_0_36_29
*1214 FILLER_0_36_299
*1215 FILLER_0_36_3
*1216 FILLER_0_36_307
*1217 FILLER_0_36_309
*1218 FILLER_0_36_321
*1219 FILLER_0_36_333
*1220 FILLER_0_36_345
*1221 FILLER_0_36_41
*1222 FILLER_0_36_53
*1223 FILLER_0_36_65
*1224 FILLER_0_36_77
*1225 FILLER_0_36_83
*1226 FILLER_0_36_85
*1227 FILLER_0_36_97
*1228 FILLER_0_37_105
*1229 FILLER_0_37_111
*1230 FILLER_0_37_113
*1231 FILLER_0_37_125
*1232 FILLER_0_37_137
*1233 FILLER_0_37_149
*1234 FILLER_0_37_15
*1235 FILLER_0_37_161
*1236 FILLER_0_37_167
*1237 FILLER_0_37_169
*1238 FILLER_0_37_186
*1239 FILLER_0_37_192
*1240 FILLER_0_37_208
*1241 FILLER_0_37_225
*1242 FILLER_0_37_253
*1243 FILLER_0_37_259
*1244 FILLER_0_37_27
*1245 FILLER_0_37_271
*1246 FILLER_0_37_278
*1247 FILLER_0_37_281
*1248 FILLER_0_37_287
*1249 FILLER_0_37_3
*1250 FILLER_0_37_320
*1251 FILLER_0_37_332
*1252 FILLER_0_37_337
*1253 FILLER_0_37_349
*1254 FILLER_0_37_39
*1255 FILLER_0_37_51
*1256 FILLER_0_37_55
*1257 FILLER_0_37_57
*1258 FILLER_0_37_69
*1259 FILLER_0_37_81
*1260 FILLER_0_37_93
*1261 FILLER_0_38_102
*1262 FILLER_0_38_106
*1263 FILLER_0_38_110
*1264 FILLER_0_38_113
*1265 FILLER_0_38_118
*1266 FILLER_0_38_122
*1267 FILLER_0_38_126
*1268 FILLER_0_38_130
*1269 FILLER_0_38_134
*1270 FILLER_0_38_14
*1271 FILLER_0_38_144
*1272 FILLER_0_38_152
*1273 FILLER_0_38_156
*1274 FILLER_0_38_161
*1275 FILLER_0_38_169
*1276 FILLER_0_38_176
*1277 FILLER_0_38_18
*1278 FILLER_0_38_181
*1279 FILLER_0_38_193
*1280 FILLER_0_38_201
*1281 FILLER_0_38_209
*1282 FILLER_0_38_215
*1283 FILLER_0_38_22
*1284 FILLER_0_38_223
*1285 FILLER_0_38_225
*1286 FILLER_0_38_237
*1287 FILLER_0_38_241
*1288 FILLER_0_38_249
*1289 FILLER_0_38_253
*1290 FILLER_0_38_294
*1291 FILLER_0_38_3
*1292 FILLER_0_38_307
*1293 FILLER_0_38_312
*1294 FILLER_0_38_318
*1295 FILLER_0_38_32
*1296 FILLER_0_38_334
*1297 FILLER_0_38_337
*1298 FILLER_0_38_349
*1299 FILLER_0_38_38
*1300 FILLER_0_38_42
*1301 FILLER_0_38_46
*1302 FILLER_0_38_50
*1303 FILLER_0_38_54
*1304 FILLER_0_38_57
*1305 FILLER_0_38_62
*1306 FILLER_0_38_66
*1307 FILLER_0_38_70
*1308 FILLER_0_38_74
*1309 FILLER_0_38_78
*1310 FILLER_0_38_88
*1311 FILLER_0_38_94
*1312 FILLER_0_38_98
*1313 FILLER_0_3_105
*1314 FILLER_0_3_111
*1315 FILLER_0_3_113
*1316 FILLER_0_3_125
*1317 FILLER_0_3_137
*1318 FILLER_0_3_149
*1319 FILLER_0_3_15
*1320 FILLER_0_3_161
*1321 FILLER_0_3_167
*1322 FILLER_0_3_169
*1323 FILLER_0_3_181
*1324 FILLER_0_3_193
*1325 FILLER_0_3_205
*1326 FILLER_0_3_217
*1327 FILLER_0_3_223
*1328 FILLER_0_3_225
*1329 FILLER_0_3_237
*1330 FILLER_0_3_249
*1331 FILLER_0_3_261
*1332 FILLER_0_3_27
*1333 FILLER_0_3_273
*1334 FILLER_0_3_279
*1335 FILLER_0_3_281
*1336 FILLER_0_3_293
*1337 FILLER_0_3_3
*1338 FILLER_0_3_305
*1339 FILLER_0_3_317
*1340 FILLER_0_3_329
*1341 FILLER_0_3_335
*1342 FILLER_0_3_337
*1343 FILLER_0_3_349
*1344 FILLER_0_3_39
*1345 FILLER_0_3_51
*1346 FILLER_0_3_55
*1347 FILLER_0_3_57
*1348 FILLER_0_3_69
*1349 FILLER_0_3_81
*1350 FILLER_0_3_93
*1351 FILLER_0_4_109
*1352 FILLER_0_4_121
*1353 FILLER_0_4_133
*1354 FILLER_0_4_139
*1355 FILLER_0_4_141
*1356 FILLER_0_4_15
*1357 FILLER_0_4_153
*1358 FILLER_0_4_165
*1359 FILLER_0_4_177
*1360 FILLER_0_4_189
*1361 FILLER_0_4_195
*1362 FILLER_0_4_197
*1363 FILLER_0_4_209
*1364 FILLER_0_4_221
*1365 FILLER_0_4_233
*1366 FILLER_0_4_245
*1367 FILLER_0_4_251
*1368 FILLER_0_4_253
*1369 FILLER_0_4_265
*1370 FILLER_0_4_27
*1371 FILLER_0_4_277
*1372 FILLER_0_4_289
*1373 FILLER_0_4_29
*1374 FILLER_0_4_3
*1375 FILLER_0_4_301
*1376 FILLER_0_4_307
*1377 FILLER_0_4_309
*1378 FILLER_0_4_321
*1379 FILLER_0_4_333
*1380 FILLER_0_4_345
*1381 FILLER_0_4_41
*1382 FILLER_0_4_53
*1383 FILLER_0_4_65
*1384 FILLER_0_4_77
*1385 FILLER_0_4_83
*1386 FILLER_0_4_85
*1387 FILLER_0_4_97
*1388 FILLER_0_5_105
*1389 FILLER_0_5_111
*1390 FILLER_0_5_113
*1391 FILLER_0_5_125
*1392 FILLER_0_5_137
*1393 FILLER_0_5_149
*1394 FILLER_0_5_15
*1395 FILLER_0_5_161
*1396 FILLER_0_5_167
*1397 FILLER_0_5_169
*1398 FILLER_0_5_181
*1399 FILLER_0_5_193
*1400 FILLER_0_5_205
*1401 FILLER_0_5_217
*1402 FILLER_0_5_223
*1403 FILLER_0_5_225
*1404 FILLER_0_5_237
*1405 FILLER_0_5_249
*1406 FILLER_0_5_261
*1407 FILLER_0_5_27
*1408 FILLER_0_5_273
*1409 FILLER_0_5_279
*1410 FILLER_0_5_281
*1411 FILLER_0_5_293
*1412 FILLER_0_5_3
*1413 FILLER_0_5_305
*1414 FILLER_0_5_317
*1415 FILLER_0_5_329
*1416 FILLER_0_5_335
*1417 FILLER_0_5_337
*1418 FILLER_0_5_349
*1419 FILLER_0_5_39
*1420 FILLER_0_5_51
*1421 FILLER_0_5_55
*1422 FILLER_0_5_57
*1423 FILLER_0_5_69
*1424 FILLER_0_5_81
*1425 FILLER_0_5_93
*1426 FILLER_0_6_109
*1427 FILLER_0_6_121
*1428 FILLER_0_6_133
*1429 FILLER_0_6_139
*1430 FILLER_0_6_141
*1431 FILLER_0_6_15
*1432 FILLER_0_6_153
*1433 FILLER_0_6_165
*1434 FILLER_0_6_177
*1435 FILLER_0_6_189
*1436 FILLER_0_6_195
*1437 FILLER_0_6_197
*1438 FILLER_0_6_209
*1439 FILLER_0_6_221
*1440 FILLER_0_6_233
*1441 FILLER_0_6_245
*1442 FILLER_0_6_251
*1443 FILLER_0_6_253
*1444 FILLER_0_6_265
*1445 FILLER_0_6_27
*1446 FILLER_0_6_277
*1447 FILLER_0_6_289
*1448 FILLER_0_6_29
*1449 FILLER_0_6_3
*1450 FILLER_0_6_301
*1451 FILLER_0_6_307
*1452 FILLER_0_6_309
*1453 FILLER_0_6_321
*1454 FILLER_0_6_333
*1455 FILLER_0_6_345
*1456 FILLER_0_6_41
*1457 FILLER_0_6_53
*1458 FILLER_0_6_65
*1459 FILLER_0_6_77
*1460 FILLER_0_6_83
*1461 FILLER_0_6_85
*1462 FILLER_0_6_97
*1463 FILLER_0_7_105
*1464 FILLER_0_7_111
*1465 FILLER_0_7_113
*1466 FILLER_0_7_125
*1467 FILLER_0_7_137
*1468 FILLER_0_7_149
*1469 FILLER_0_7_15
*1470 FILLER_0_7_161
*1471 FILLER_0_7_167
*1472 FILLER_0_7_169
*1473 FILLER_0_7_181
*1474 FILLER_0_7_193
*1475 FILLER_0_7_205
*1476 FILLER_0_7_217