*SPEF "ieee 1481-1999"
*DESIGN "tt_um_wokwi_371425977920989185"
*DATE "11:11:11 Fri 11 11, 1111"
*VENDOR "OpenRCX"
*PROGRAM "Parallel Extraction"
*VERSION "1.0"
*DESIGN_FLOW "NAME_SCOPE LOCAL" "PIN_CAP NONE"
*DIVIDER /
*DELIMITER :
*BUS_DELIMITER []
*T_UNIT 1 NS
*C_UNIT 1 PF
*R_UNIT 1 OHM
*L_UNIT 1 HENRY

*NAME_MAP
*3 clk
*4 ena
*5 rst_n
*6 ui_in[0]
*7 ui_in[1]
*8 ui_in[2]
*9 ui_in[3]
*10 ui_in[4]
*11 ui_in[5]
*12 ui_in[6]
*13 ui_in[7]
*14 uio_in[0]
*15 uio_in[1]
*16 uio_in[2]
*17 uio_in[3]
*18 uio_in[4]
*19 uio_in[5]
*20 uio_in[6]
*21 uio_in[7]
*22 net5
*23 net6
*24 net7
*25 net8
*26 net9
*27 net10
*28 net11
*29 net12
*30 net13
*31 net14
*32 net15
*33 net16
*34 net17
*35 net18
*36 net19
*37 net20
*38 uo_out[0]
*39 uo_out[1]
*40 uo_out[2]
*41 uo_out[3]
*42 uo_out[4]
*43 uo_out[5]
*44 uo_out[6]
*45 net21
*46 _00_
*47 _01_
*48 _02_
*49 _03_
*50 _04_
*51 _05_
*52 _06_
*53 and1\.a
*54 and1\.out
*55 and2\.a
*56 and4\.b
*57 clknet_0_clk
*58 clknet_1_0__leaf_clk
*59 clknet_1_1__leaf_clk
*60 flop1\.q
*61 nand2\.out
*62 net1
*63 net2
*64 net22
*65 net3
*66 net4
*67 not1\.out
*68 not2\.out
*69 not3\.out
*70 or3\.out
*71 FILLER_0_0_109
*72 FILLER_0_0_113
*73 FILLER_0_0_125
*74 FILLER_0_0_137
*75 FILLER_0_0_141
*76 FILLER_0_0_15
*77 FILLER_0_0_153
*78 FILLER_0_0_165
*79 FILLER_0_0_169
*80 FILLER_0_0_181
*81 FILLER_0_0_193
*82 FILLER_0_0_197
*83 FILLER_0_0_209
*84 FILLER_0_0_221
*85 FILLER_0_0_225
*86 FILLER_0_0_237
*87 FILLER_0_0_249
*88 FILLER_0_0_253
*89 FILLER_0_0_265
*90 FILLER_0_0_27
*91 FILLER_0_0_277
*92 FILLER_0_0_281
*93 FILLER_0_0_29
*94 FILLER_0_0_293
*95 FILLER_0_0_3
*96 FILLER_0_0_305
*97 FILLER_0_0_309
*98 FILLER_0_0_321
*99 FILLER_0_0_333
*100 FILLER_0_0_337
*101 FILLER_0_0_349
*102 FILLER_0_0_41
*103 FILLER_0_0_53
*104 FILLER_0_0_57
*105 FILLER_0_0_69
*106 FILLER_0_0_81
*107 FILLER_0_0_85
*108 FILLER_0_0_97
*109 FILLER_0_10_109
*110 FILLER_0_10_121
*111 FILLER_0_10_133
*112 FILLER_0_10_139
*113 FILLER_0_10_141
*114 FILLER_0_10_15
*115 FILLER_0_10_153
*116 FILLER_0_10_165
*117 FILLER_0_10_177
*118 FILLER_0_10_189
*119 FILLER_0_10_195
*120 FILLER_0_10_197
*121 FILLER_0_10_209
*122 FILLER_0_10_221
*123 FILLER_0_10_233
*124 FILLER_0_10_245
*125 FILLER_0_10_251
*126 FILLER_0_10_253
*127 FILLER_0_10_265
*128 FILLER_0_10_27
*129 FILLER_0_10_277
*130 FILLER_0_10_289
*131 FILLER_0_10_29
*132 FILLER_0_10_3
*133 FILLER_0_10_301
*134 FILLER_0_10_307
*135 FILLER_0_10_309
*136 FILLER_0_10_321
*137 FILLER_0_10_333
*138 FILLER_0_10_345
*139 FILLER_0_10_41
*140 FILLER_0_10_53
*141 FILLER_0_10_65
*142 FILLER_0_10_77
*143 FILLER_0_10_83
*144 FILLER_0_10_85
*145 FILLER_0_10_97
*146 FILLER_0_11_105
*147 FILLER_0_11_111
*148 FILLER_0_11_113
*149 FILLER_0_11_125
*150 FILLER_0_11_137
*151 FILLER_0_11_149
*152 FILLER_0_11_15
*153 FILLER_0_11_161
*154 FILLER_0_11_167
*155 FILLER_0_11_169
*156 FILLER_0_11_181
*157 FILLER_0_11_193
*158 FILLER_0_11_205
*159 FILLER_0_11_217
*160 FILLER_0_11_223
*161 FILLER_0_11_225
*162 FILLER_0_11_237
*163 FILLER_0_11_249
*164 FILLER_0_11_261
*165 FILLER_0_11_27
*166 FILLER_0_11_273
*167 FILLER_0_11_279
*168 FILLER_0_11_281
*169 FILLER_0_11_293
*170 FILLER_0_11_3
*171 FILLER_0_11_305
*172 FILLER_0_11_317
*173 FILLER_0_11_329
*174 FILLER_0_11_335
*175 FILLER_0_11_337
*176 FILLER_0_11_349
*177 FILLER_0_11_39
*178 FILLER_0_11_51
*179 FILLER_0_11_55
*180 FILLER_0_11_57
*181 FILLER_0_11_69
*182 FILLER_0_11_81
*183 FILLER_0_11_93
*184 FILLER_0_12_109
*185 FILLER_0_12_121
*186 FILLER_0_12_133
*187 FILLER_0_12_139
*188 FILLER_0_12_141
*189 FILLER_0_12_15
*190 FILLER_0_12_153
*191 FILLER_0_12_165
*192 FILLER_0_12_177
*193 FILLER_0_12_189
*194 FILLER_0_12_195
*195 FILLER_0_12_197
*196 FILLER_0_12_209
*197 FILLER_0_12_221
*198 FILLER_0_12_233
*199 FILLER_0_12_245
*200 FILLER_0_12_251
*201 FILLER_0_12_253
*202 FILLER_0_12_265
*203 FILLER_0_12_27
*204 FILLER_0_12_277
*205 FILLER_0_12_289
*206 FILLER_0_12_29
*207 FILLER_0_12_3
*208 FILLER_0_12_301
*209 FILLER_0_12_307
*210 FILLER_0_12_309
*211 FILLER_0_12_321
*212 FILLER_0_12_333
*213 FILLER_0_12_345
*214 FILLER_0_12_41
*215 FILLER_0_12_53
*216 FILLER_0_12_65
*217 FILLER_0_12_77
*218 FILLER_0_12_83
*219 FILLER_0_12_85
*220 FILLER_0_12_97
*221 FILLER_0_13_105
*222 FILLER_0_13_111
*223 FILLER_0_13_113
*224 FILLER_0_13_125
*225 FILLER_0_13_137
*226 FILLER_0_13_149
*227 FILLER_0_13_15
*228 FILLER_0_13_161
*229 FILLER_0_13_167
*230 FILLER_0_13_169
*231 FILLER_0_13_181
*232 FILLER_0_13_193
*233 FILLER_0_13_205
*234 FILLER_0_13_217
*235 FILLER_0_13_223
*236 FILLER_0_13_225
*237 FILLER_0_13_237
*238 FILLER_0_13_249
*239 FILLER_0_13_261
*240 FILLER_0_13_27
*241 FILLER_0_13_273
*242 FILLER_0_13_279
*243 FILLER_0_13_281
*244 FILLER_0_13_293
*245 FILLER_0_13_3
*246 FILLER_0_13_305
*247 FILLER_0_13_317
*248 FILLER_0_13_329
*249 FILLER_0_13_335
*250 FILLER_0_13_337
*251 FILLER_0_13_349
*252 FILLER_0_13_39
*253 FILLER_0_13_51
*254 FILLER_0_13_55
*255 FILLER_0_13_57
*256 FILLER_0_13_69
*257 FILLER_0_13_81
*258 FILLER_0_13_93
*259 FILLER_0_14_109
*260 FILLER_0_14_121
*261 FILLER_0_14_133
*262 FILLER_0_14_139
*263 FILLER_0_14_141
*264 FILLER_0_14_15
*265 FILLER_0_14_153
*266 FILLER_0_14_165
*267 FILLER_0_14_177
*268 FILLER_0_14_189
*269 FILLER_0_14_195
*270 FILLER_0_14_197
*271 FILLER_0_14_209
*272 FILLER_0_14_221
*273 FILLER_0_14_233
*274 FILLER_0_14_245
*275 FILLER_0_14_251
*276 FILLER_0_14_253
*277 FILLER_0_14_265
*278 FILLER_0_14_27
*279 FILLER_0_14_277
*280 FILLER_0_14_289
*281 FILLER_0_14_29
*282 FILLER_0_14_3
*283 FILLER_0_14_301
*284 FILLER_0_14_307
*285 FILLER_0_14_309
*286 FILLER_0_14_321
*287 FILLER_0_14_333
*288 FILLER_0_14_345
*289 FILLER_0_14_41
*290 FILLER_0_14_53
*291 FILLER_0_14_65
*292 FILLER_0_14_77
*293 FILLER_0_14_83
*294 FILLER_0_14_85
*295 FILLER_0_14_97
*296 FILLER_0_15_105
*297 FILLER_0_15_111
*298 FILLER_0_15_113
*299 FILLER_0_15_125
*300 FILLER_0_15_137
*301 FILLER_0_15_149
*302 FILLER_0_15_15
*303 FILLER_0_15_161
*304 FILLER_0_15_167
*305 FILLER_0_15_169
*306 FILLER_0_15_181
*307 FILLER_0_15_193
*308 FILLER_0_15_205
*309 FILLER_0_15_217
*310 FILLER_0_15_223
*311 FILLER_0_15_225
*312 FILLER_0_15_237
*313 FILLER_0_15_249
*314 FILLER_0_15_261
*315 FILLER_0_15_27
*316 FILLER_0_15_273
*317 FILLER_0_15_279
*318 FILLER_0_15_281
*319 FILLER_0_15_293
*320 FILLER_0_15_3
*321 FILLER_0_15_305
*322 FILLER_0_15_317
*323 FILLER_0_15_329
*324 FILLER_0_15_335
*325 FILLER_0_15_337
*326 FILLER_0_15_349
*327 FILLER_0_15_39
*328 FILLER_0_15_51
*329 FILLER_0_15_55
*330 FILLER_0_15_57
*331 FILLER_0_15_69
*332 FILLER_0_15_81
*333 FILLER_0_15_93
*334 FILLER_0_16_109
*335 FILLER_0_16_121
*336 FILLER_0_16_133
*337 FILLER_0_16_139
*338 FILLER_0_16_141
*339 FILLER_0_16_15
*340 FILLER_0_16_153
*341 FILLER_0_16_165
*342 FILLER_0_16_177
*343 FILLER_0_16_189
*344 FILLER_0_16_195
*345 FILLER_0_16_197
*346 FILLER_0_16_209
*347 FILLER_0_16_221
*348 FILLER_0_16_233
*349 FILLER_0_16_245
*350 FILLER_0_16_251
*351 FILLER_0_16_253
*352 FILLER_0_16_265
*353 FILLER_0_16_27
*354 FILLER_0_16_277
*355 FILLER_0_16_289
*356 FILLER_0_16_29
*357 FILLER_0_16_3
*358 FILLER_0_16_301
*359 FILLER_0_16_307
*360 FILLER_0_16_309
*361 FILLER_0_16_321
*362 FILLER_0_16_333
*363 FILLER_0_16_345
*364 FILLER_0_16_41
*365 FILLER_0_16_53
*366 FILLER_0_16_65
*367 FILLER_0_16_77
*368 FILLER_0_16_83
*369 FILLER_0_16_85
*370 FILLER_0_16_97
*371 FILLER_0_17_105
*372 FILLER_0_17_111
*373 FILLER_0_17_113
*374 FILLER_0_17_125
*375 FILLER_0_17_137
*376 FILLER_0_17_149
*377 FILLER_0_17_15
*378 FILLER_0_17_161
*379 FILLER_0_17_167
*380 FILLER_0_17_169
*381 FILLER_0_17_181
*382 FILLER_0_17_193
*383 FILLER_0_17_205
*384 FILLER_0_17_217
*385 FILLER_0_17_223
*386 FILLER_0_17_225
*387 FILLER_0_17_237
*388 FILLER_0_17_249
*389 FILLER_0_17_261
*390 FILLER_0_17_27
*391 FILLER_0_17_273
*392 FILLER_0_17_279
*393 FILLER_0_17_281
*394 FILLER_0_17_293
*395 FILLER_0_17_3
*396 FILLER_0_17_305
*397 FILLER_0_17_317
*398 FILLER_0_17_329
*399 FILLER_0_17_335
*400 FILLER_0_17_337
*401 FILLER_0_17_349
*402 FILLER_0_17_39
*403 FILLER_0_17_51
*404 FILLER_0_17_55
*405 FILLER_0_17_57
*406 FILLER_0_17_69
*407 FILLER_0_17_81
*408 FILLER_0_17_93
*409 FILLER_0_18_109
*410 FILLER_0_18_121
*411 FILLER_0_18_133
*412 FILLER_0_18_139
*413 FILLER_0_18_141
*414 FILLER_0_18_15
*415 FILLER_0_18_153
*416 FILLER_0_18_165
*417 FILLER_0_18_177
*418 FILLER_0_18_189
*419 FILLER_0_18_195
*420 FILLER_0_18_197
*421 FILLER_0_18_209
*422 FILLER_0_18_221
*423 FILLER_0_18_233
*424 FILLER_0_18_245
*425 FILLER_0_18_251
*426 FILLER_0_18_253
*427 FILLER_0_18_265
*428 FILLER_0_18_27
*429 FILLER_0_18_277
*430 FILLER_0_18_289
*431 FILLER_0_18_29
*432 FILLER_0_18_3
*433 FILLER_0_18_301
*434 FILLER_0_18_307
*435 FILLER_0_18_309
*436 FILLER_0_18_321
*437 FILLER_0_18_333
*438 FILLER_0_18_345
*439 FILLER_0_18_41
*440 FILLER_0_18_53
*441 FILLER_0_18_65
*442 FILLER_0_18_77
*443 FILLER_0_18_83
*444 FILLER_0_18_85
*445 FILLER_0_18_97
*446 FILLER_0_19_105
*447 FILLER_0_19_111
*448 FILLER_0_19_113
*449 FILLER_0_19_125
*450 FILLER_0_19_137
*451 FILLER_0_19_149
*452 FILLER_0_19_15
*453 FILLER_0_19_161
*454 FILLER_0_19_167
*455 FILLER_0_19_169
*456 FILLER_0_19_181
*457 FILLER_0_19_193
*458 FILLER_0_19_205
*459 FILLER_0_19_217
*460 FILLER_0_19_223
*461 FILLER_0_19_225
*462 FILLER_0_19_237
*463 FILLER_0_19_249
*464 FILLER_0_19_261
*465 FILLER_0_19_27
*466 FILLER_0_19_273
*467 FILLER_0_19_279
*468 FILLER_0_19_281
*469 FILLER_0_19_293
*470 FILLER_0_19_3
*471 FILLER_0_19_305
*472 FILLER_0_19_317
*473 FILLER_0_19_329
*474 FILLER_0_19_335
*475 FILLER_0_19_337
*476 FILLER_0_19_349
*477 FILLER_0_19_39
*478 FILLER_0_19_51
*479 FILLER_0_19_55
*480 FILLER_0_19_57
*481 FILLER_0_19_69
*482 FILLER_0_19_81
*483 FILLER_0_19_93
*484 FILLER_0_1_105
*485 FILLER_0_1_111
*486 FILLER_0_1_113
*487 FILLER_0_1_125
*488 FILLER_0_1_137
*489 FILLER_0_1_149
*490 FILLER_0_1_15
*491 FILLER_0_1_161
*492 FILLER_0_1_167
*493 FILLER_0_1_169
*494 FILLER_0_1_181
*495 FILLER_0_1_193
*496 FILLER_0_1_205
*497 FILLER_0_1_217
*498 FILLER_0_1_223
*499 FILLER_0_1_225
*500 FILLER_0_1_237
*501 FILLER_0_1_249
*502 FILLER_0_1_261
*503 FILLER_0_1_27
*504 FILLER_0_1_273
*505 FILLER_0_1_279
*506 FILLER_0_1_281
*507 FILLER_0_1_293
*508 FILLER_0_1_3
*509 FILLER_0_1_305
*510 FILLER_0_1_317
*511 FILLER_0_1_329
*512 FILLER_0_1_335
*513 FILLER_0_1_337
*514 FILLER_0_1_349
*515 FILLER_0_1_39
*516 FILLER_0_1_51
*517 FILLER_0_1_55
*518 FILLER_0_1_57
*519 FILLER_0_1_69
*520 FILLER_0_1_81
*521 FILLER_0_1_93
*522 FILLER_0_20_109
*523 FILLER_0_20_121
*524 FILLER_0_20_133
*525 FILLER_0_20_139
*526 FILLER_0_20_141
*527 FILLER_0_20_15
*528 FILLER_0_20_153
*529 FILLER_0_20_165
*530 FILLER_0_20_177
*531 FILLER_0_20_189
*532 FILLER_0_20_195
*533 FILLER_0_20_197
*534 FILLER_0_20_209
*535 FILLER_0_20_221
*536 FILLER_0_20_233
*537 FILLER_0_20_245
*538 FILLER_0_20_251
*539 FILLER_0_20_253
*540 FILLER_0_20_265
*541 FILLER_0_20_27
*542 FILLER_0_20_277
*543 FILLER_0_20_289
*544 FILLER_0_20_29
*545 FILLER_0_20_3
*546 FILLER_0_20_301
*547 FILLER_0_20_307
*548 FILLER_0_20_309
*549 FILLER_0_20_321
*550 FILLER_0_20_333
*551 FILLER_0_20_345
*552 FILLER_0_20_41
*553 FILLER_0_20_53
*554 FILLER_0_20_65
*555 FILLER_0_20_77
*556 FILLER_0_20_83
*557 FILLER_0_20_85
*558 FILLER_0_20_97
*559 FILLER_0_21_105
*560 FILLER_0_21_111
*561 FILLER_0_21_113
*562 FILLER_0_21_125
*563 FILLER_0_21_137
*564 FILLER_0_21_149
*565 FILLER_0_21_15
*566 FILLER_0_21_161
*567 FILLER_0_21_167
*568 FILLER_0_21_169
*569 FILLER_0_21_181
*570 FILLER_0_21_193
*571 FILLER_0_21_205
*572 FILLER_0_21_217
*573 FILLER_0_21_223
*574 FILLER_0_21_225
*575 FILLER_0_21_237
*576 FILLER_0_21_249
*577 FILLER_0_21_261
*578 FILLER_0_21_27
*579 FILLER_0_21_273
*580 FILLER_0_21_279
*581 FILLER_0_21_281
*582 FILLER_0_21_293
*583 FILLER_0_21_3
*584 FILLER_0_21_305
*585 FILLER_0_21_317
*586 FILLER_0_21_329
*587 FILLER_0_21_335
*588 FILLER_0_21_337
*589 FILLER_0_21_349
*590 FILLER_0_21_39
*591 FILLER_0_21_51
*592 FILLER_0_21_55
*593 FILLER_0_21_57
*594 FILLER_0_21_69
*595 FILLER_0_21_81
*596 FILLER_0_21_93
*597 FILLER_0_22_109
*598 FILLER_0_22_121
*599 FILLER_0_22_133
*600 FILLER_0_22_139
*601 FILLER_0_22_141
*602 FILLER_0_22_15
*603 FILLER_0_22_153
*604 FILLER_0_22_165
*605 FILLER_0_22_177
*606 FILLER_0_22_189
*607 FILLER_0_22_195
*608 FILLER_0_22_197
*609 FILLER_0_22_209
*610 FILLER_0_22_221
*611 FILLER_0_22_233
*612 FILLER_0_22_245
*613 FILLER_0_22_251
*614 FILLER_0_22_253
*615 FILLER_0_22_265
*616 FILLER_0_22_27
*617 FILLER_0_22_277
*618 FILLER_0_22_289
*619 FILLER_0_22_29
*620 FILLER_0_22_3
*621 FILLER_0_22_301
*622 FILLER_0_22_307
*623 FILLER_0_22_309
*624 FILLER_0_22_321
*625 FILLER_0_22_333
*626 FILLER_0_22_345
*627 FILLER_0_22_41
*628 FILLER_0_22_53
*629 FILLER_0_22_65
*630 FILLER_0_22_77
*631 FILLER_0_22_83
*632 FILLER_0_22_85
*633 FILLER_0_22_97
*634 FILLER_0_23_105
*635 FILLER_0_23_111
*636 FILLER_0_23_113
*637 FILLER_0_23_125
*638 FILLER_0_23_137
*639 FILLER_0_23_149
*640 FILLER_0_23_15
*641 FILLER_0_23_161
*642 FILLER_0_23_167
*643 FILLER_0_23_169
*644 FILLER_0_23_181
*645 FILLER_0_23_193
*646 FILLER_0_23_205
*647 FILLER_0_23_217
*648 FILLER_0_23_223
*649 FILLER_0_23_225
*650 FILLER_0_23_237
*651 FILLER_0_23_249
*652 FILLER_0_23_261
*653 FILLER_0_23_27
*654 FILLER_0_23_273
*655 FILLER_0_23_279
*656 FILLER_0_23_281
*657 FILLER_0_23_293
*658 FILLER_0_23_3
*659 FILLER_0_23_305
*660 FILLER_0_23_317
*661 FILLER_0_23_329
*662 FILLER_0_23_335
*663 FILLER_0_23_337
*664 FILLER_0_23_349
*665 FILLER_0_23_39
*666 FILLER_0_23_51
*667 FILLER_0_23_55
*668 FILLER_0_23_57
*669 FILLER_0_23_69
*670 FILLER_0_23_81
*671 FILLER_0_23_93
*672 FILLER_0_24_109
*673 FILLER_0_24_121
*674 FILLER_0_24_133
*675 FILLER_0_24_139
*676 FILLER_0_24_141
*677 FILLER_0_24_15
*678 FILLER_0_24_153
*679 FILLER_0_24_165
*680 FILLER_0_24_177
*681 FILLER_0_24_189
*682 FILLER_0_24_195
*683 FILLER_0_24_197
*684 FILLER_0_24_209
*685 FILLER_0_24_221
*686 FILLER_0_24_233
*687 FILLER_0_24_245
*688 FILLER_0_24_251
*689 FILLER_0_24_253
*690 FILLER_0_24_265
*691 FILLER_0_24_27
*692 FILLER_0_24_277
*693 FILLER_0_24_289
*694 FILLER_0_24_29
*695 FILLER_0_24_3
*696 FILLER_0_24_301
*697 FILLER_0_24_307
*698 FILLER_0_24_309
*699 FILLER_0_24_321
*700 FILLER_0_24_333
*701 FILLER_0_24_345
*702 FILLER_0_24_41
*703 FILLER_0_24_53
*704 FILLER_0_24_65
*705 FILLER_0_24_77
*706 FILLER_0_24_83
*707 FILLER_0_24_85
*708 FILLER_0_24_97
*709 FILLER_0_25_105
*710 FILLER_0_25_111
*711 FILLER_0_25_113
*712 FILLER_0_25_125
*713 FILLER_0_25_137
*714 FILLER_0_25_149
*715 FILLER_0_25_15
*716 FILLER_0_25_161
*717 FILLER_0_25_167
*718 FILLER_0_25_169
*719 FILLER_0_25_181
*720 FILLER_0_25_193
*721 FILLER_0_25_205
*722 FILLER_0_25_217
*723 FILLER_0_25_223
*724 FILLER_0_25_225
*725 FILLER_0_25_237
*726 FILLER_0_25_249
*727 FILLER_0_25_261
*728 FILLER_0_25_27
*729 FILLER_0_25_273
*730 FILLER_0_25_279
*731 FILLER_0_25_281
*732 FILLER_0_25_293
*733 FILLER_0_25_3
*734 FILLER_0_25_305
*735 FILLER_0_25_317
*736 FILLER_0_25_329
*737 FILLER_0_25_335
*738 FILLER_0_25_337
*739 FILLER_0_25_349
*740 FILLER_0_25_39
*741 FILLER_0_25_51
*742 FILLER_0_25_55
*743 FILLER_0_25_57
*744 FILLER_0_25_69
*745 FILLER_0_25_81
*746 FILLER_0_25_93
*747 FILLER_0_26_109
*748 FILLER_0_26_121
*749 FILLER_0_26_133
*750 FILLER_0_26_139
*751 FILLER_0_26_141
*752 FILLER_0_26_15
*753 FILLER_0_26_153
*754 FILLER_0_26_165
*755 FILLER_0_26_177
*756 FILLER_0_26_189
*757 FILLER_0_26_195
*758 FILLER_0_26_197
*759 FILLER_0_26_209
*760 FILLER_0_26_221
*761 FILLER_0_26_233
*762 FILLER_0_26_245
*763 FILLER_0_26_251
*764 FILLER_0_26_253
*765 FILLER_0_26_265
*766 FILLER_0_26_27
*767 FILLER_0_26_277
*768 FILLER_0_26_289
*769 FILLER_0_26_29
*770 FILLER_0_26_3
*771 FILLER_0_26_301
*772 FILLER_0_26_307
*773 FILLER_0_26_309
*774 FILLER_0_26_321
*775 FILLER_0_26_333
*776 FILLER_0_26_345
*777 FILLER_0_26_41
*778 FILLER_0_26_53
*779 FILLER_0_26_65
*780 FILLER_0_26_77
*781 FILLER_0_26_83
*782 FILLER_0_26_85
*783 FILLER_0_26_97
*784 FILLER_0_27_105
*785 FILLER_0_27_111
*786 FILLER_0_27_113
*787 FILLER_0_27_125
*788 FILLER_0_27_137
*789 FILLER_0_27_149
*790 FILLER_0_27_15
*791 FILLER_0_27_161
*792 FILLER_0_27_167
*793 FILLER_0_27_169
*794 FILLER_0_27_181
*795 FILLER_0_27_193
*796 FILLER_0_27_205
*797 FILLER_0_27_217
*798 FILLER_0_27_223
*799 FILLER_0_27_225
*800 FILLER_0_27_237
*801 FILLER_0_27_249
*802 FILLER_0_27_261
*803 FILLER_0_27_27
*804 FILLER_0_27_273
*805 FILLER_0_27_279
*806 FILLER_0_27_281
*807 FILLER_0_27_293
*808 FILLER_0_27_3
*809 FILLER_0_27_305
*810 FILLER_0_27_317
*811 FILLER_0_27_329
*812 FILLER_0_27_335
*813 FILLER_0_27_337
*814 FILLER_0_27_349
*815 FILLER_0_27_39
*816 FILLER_0_27_51
*817 FILLER_0_27_55
*818 FILLER_0_27_57
*819 FILLER_0_27_69
*820 FILLER_0_27_81
*821 FILLER_0_27_93
*822 FILLER_0_28_109
*823 FILLER_0_28_121
*824 FILLER_0_28_133
*825 FILLER_0_28_139
*826 FILLER_0_28_141
*827 FILLER_0_28_15
*828 FILLER_0_28_153
*829 FILLER_0_28_165
*830 FILLER_0_28_177
*831 FILLER_0_28_189
*832 FILLER_0_28_195
*833 FILLER_0_28_197
*834 FILLER_0_28_209
*835 FILLER_0_28_221
*836 FILLER_0_28_233
*837 FILLER_0_28_245
*838 FILLER_0_28_251
*839 FILLER_0_28_253
*840 FILLER_0_28_265
*841 FILLER_0_28_27
*842 FILLER_0_28_277
*843 FILLER_0_28_289
*844 FILLER_0_28_29
*845 FILLER_0_28_3
*846 FILLER_0_28_301
*847 FILLER_0_28_307
*848 FILLER_0_28_309
*849 FILLER_0_28_321
*850 FILLER_0_28_333
*851 FILLER_0_28_345
*852 FILLER_0_28_41
*853 FILLER_0_28_53
*854 FILLER_0_28_65
*855 FILLER_0_28_77
*856 FILLER_0_28_83
*857 FILLER_0_28_85
*858 FILLER_0_28_97
*859 FILLER_0_29_105
*860 FILLER_0_29_111
*861 FILLER_0_29_113
*862 FILLER_0_29_125
*863 FILLER_0_29_137
*864 FILLER_0_29_149
*865 FILLER_0_29_15
*866 FILLER_0_29_161
*867 FILLER_0_29_167
*868 FILLER_0_29_169
*869 FILLER_0_29_181
*870 FILLER_0_29_193
*871 FILLER_0_29_205
*872 FILLER_0_29_217
*873 FILLER_0_29_223
*874 FILLER_0_29_225
*875 FILLER_0_29_237
*876 FILLER_0_29_249
*877 FILLER_0_29_261
*878 FILLER_0_29_27
*879 FILLER_0_29_273
*880 FILLER_0_29_279
*881 FILLER_0_29_281
*882 FILLER_0_29_293
*883 FILLER_0_29_3
*884 FILLER_0_29_305
*885 FILLER_0_29_317
*886 FILLER_0_29_329
*887 FILLER_0_29_335
*888 FILLER_0_29_337
*889 FILLER_0_29_349
*890 FILLER_0_29_39
*891 FILLER_0_29_51
*892 FILLER_0_29_55
*893 FILLER_0_29_57
*894 FILLER_0_29_69
*895 FILLER_0_29_81
*896 FILLER_0_29_93
*897 FILLER_0_2_109
*898 FILLER_0_2_121
*899 FILLER_0_2_133
*900 FILLER_0_2_139
*901 FILLER_0_2_141
*902 FILLER_0_2_15
*903 FILLER_0_2_153
*904 FILLER_0_2_165
*905 FILLER_0_2_177
*906 FILLER_0_2_189
*907 FILLER_0_2_195
*908 FILLER_0_2_197
*909 FILLER_0_2_209
*910 FILLER_0_2_221
*911 FILLER_0_2_233
*912 FILLER_0_2_245
*913 FILLER_0_2_251
*914 FILLER_0_2_253
*915 FILLER_0_2_265
*916 FILLER_0_2_27
*917 FILLER_0_2_277
*918 FILLER_0_2_289
*919 FILLER_0_2_29
*920 FILLER_0_2_3
*921 FILLER_0_2_301
*922 FILLER_0_2_307
*923 FILLER_0_2_309
*924 FILLER_0_2_321
*925 FILLER_0_2_333
*926 FILLER_0_2_345
*927 FILLER_0_2_41
*928 FILLER_0_2_53
*929 FILLER_0_2_65
*930 FILLER_0_2_77
*931 FILLER_0_2_83
*932 FILLER_0_2_85
*933 FILLER_0_2_97
*934 FILLER_0_30_109
*935 FILLER_0_30_121
*936 FILLER_0_30_133
*937 FILLER_0_30_139
*938 FILLER_0_30_141
*939 FILLER_0_30_15
*940 FILLER_0_30_153
*941 FILLER_0_30_165
*942 FILLER_0_30_177
*943 FILLER_0_30_189
*944 FILLER_0_30_195
*945 FILLER_0_30_197
*946 FILLER_0_30_209
*947 FILLER_0_30_221
*948 FILLER_0_30_233
*949 FILLER_0_30_245
*950 FILLER_0_30_251
*951 FILLER_0_30_253
*952 FILLER_0_30_265
*953 FILLER_0_30_27
*954 FILLER_0_30_277
*955 FILLER_0_30_289
*956 FILLER_0_30_29
*957 FILLER_0_30_3
*958 FILLER_0_30_301
*959 FILLER_0_30_307
*960 FILLER_0_30_309
*961 FILLER_0_30_321
*962 FILLER_0_30_333
*963 FILLER_0_30_345
*964 FILLER_0_30_41
*965 FILLER_0_30_53
*966 FILLER_0_30_65
*967 FILLER_0_30_77
*968 FILLER_0_30_83
*969 FILLER_0_30_85
*970 FILLER_0_30_97
*971 FILLER_0_31_105
*972 FILLER_0_31_111
*973 FILLER_0_31_113
*974 FILLER_0_31_125
*975 FILLER_0_31_137
*976 FILLER_0_31_149
*977 FILLER_0_31_15
*978 FILLER_0_31_161
*979 FILLER_0_31_167
*980 FILLER_0_31_169
*981 FILLER_0_31_181
*982 FILLER_0_31_193
*983 FILLER_0_31_205
*984 FILLER_0_31_217
*985 FILLER_0_31_223
*986 FILLER_0_31_225
*987 FILLER_0_31_237
*988 FILLER_0_31_249
*989 FILLER_0_31_261
*990 FILLER_0_31_27
*991 FILLER_0_31_273
*992 FILLER_0_31_279
*993 FILLER_0_31_281
*994 FILLER_0_31_293
*995 FILLER_0_31_3
*996 FILLER_0_31_305
*997 FILLER_0_31_317
*998 FILLER_0_31_329
*999 FILLER_0_31_335
*1000 FILLER_0_31_337
*1001 FILLER_0_31_349
*1002 FILLER_0_31_39
*1003 FILLER_0_31_51
*1004 FILLER_0_31_55
*1005 FILLER_0_31_57
*1006 FILLER_0_31_69
*1007 FILLER_0_31_81
*1008 FILLER_0_31_93
*1009 FILLER_0_32_109
*1010 FILLER_0_32_121
*1011 FILLER_0_32_133
*1012 FILLER_0_32_139
*1013 FILLER_0_32_141
*1014 FILLER_0_32_15
*1015 FILLER_0_32_153
*1016 FILLER_0_32_165
*1017 FILLER_0_32_177
*1018 FILLER_0_32_189
*1019 FILLER_0_32_195
*1020 FILLER_0_32_197
*1021 FILLER_0_32_209
*1022 FILLER_0_32_221
*1023 FILLER_0_32_233
*1024 FILLER_0_32_245
*1025 FILLER_0_32_251
*1026 FILLER_0_32_253
*1027 FILLER_0_32_265
*1028 FILLER_0_32_27
*1029 FILLER_0_32_277
*1030 FILLER_0_32_289
*1031 FILLER_0_32_29
*1032 FILLER_0_32_3
*1033 FILLER_0_32_301
*1034 FILLER_0_32_307
*1035 FILLER_0_32_309
*1036 FILLER_0_32_321
*1037 FILLER_0_32_333
*1038 FILLER_0_32_345
*1039 FILLER_0_32_41
*1040 FILLER_0_32_53
*1041 FILLER_0_32_65
*1042 FILLER_0_32_77
*1043 FILLER_0_32_83
*1044 FILLER_0_32_85
*1045 FILLER_0_32_97
*1046 FILLER_0_33_105
*1047 FILLER_0_33_111
*1048 FILLER_0_33_113
*1049 FILLER_0_33_125
*1050 FILLER_0_33_137
*1051 FILLER_0_33_149
*1052 FILLER_0_33_15
*1053 FILLER_0_33_161
*1054 FILLER_0_33_167
*1055 FILLER_0_33_169
*1056 FILLER_0_33_181
*1057 FILLER_0_33_193
*1058 FILLER_0_33_205
*1059 FILLER_0_33_217
*1060 FILLER_0_33_223
*1061 FILLER_0_33_225
*1062 FILLER_0_33_237
*1063 FILLER_0_33_249
*1064 FILLER_0_33_261
*1065 FILLER_0_33_27
*1066 FILLER_0_33_273
*1067 FILLER_0_33_279
*1068 FILLER_0_33_281
*1069 FILLER_0_33_293
*1070 FILLER_0_33_3
*1071 FILLER_0_33_305
*1072 FILLER_0_33_317
*1073 FILLER_0_33_329
*1074 FILLER_0_33_335
*1075 FILLER_0_33_337
*1076 FILLER_0_33_349
*1077 FILLER_0_33_39
*1078 FILLER_0_33_51
*1079 FILLER_0_33_55
*1080 FILLER_0_33_57
*1081 FILLER_0_33_69
*1082 FILLER_0_33_81
*1083 FILLER_0_33_93
*1084 FILLER_0_34_109
*1085 FILLER_0_34_121
*1086 FILLER_0_34_133
*1087 FILLER_0_34_139
*1088 FILLER_0_34_141
*1089 FILLER_0_34_15
*1090 FILLER_0_34_153
*1091 FILLER_0_34_165
*1092 FILLER_0_34_177
*1093 FILLER_0_34_189
*1094 FILLER_0_34_195
*1095 FILLER_0_34_197
*1096 FILLER_0_34_209
*1097 FILLER_0_34_221
*1098 FILLER_0_34_233
*1099 FILLER_0_34_245
*1100 FILLER_0_34_251
*1101 FILLER_0_34_253
*1102 FILLER_0_34_265
*1103 FILLER_0_34_27
*1104 FILLER_0_34_277
*1105 FILLER_0_34_289
*1106 FILLER_0_34_29
*1107 FILLER_0_34_3
*1108 FILLER_0_34_301
*1109 FILLER_0_34_307
*1110 FILLER_0_34_309
*1111 FILLER_0_34_321
*1112 FILLER_0_34_333
*1113 FILLER_0_34_345
*1114 FILLER_0_34_41
*1115 FILLER_0_34_53
*1116 FILLER_0_34_65
*1117 FILLER_0_34_77
*1118 FILLER_0_34_83
*1119 FILLER_0_34_85
*1120 FILLER_0_34_97
*1121 FILLER_0_35_105
*1122 FILLER_0_35_111
*1123 FILLER_0_35_113
*1124 FILLER_0_35_125
*1125 FILLER_0_35_137
*1126 FILLER_0_35_149
*1127 FILLER_0_35_15
*1128 FILLER_0_35_161
*1129 FILLER_0_35_167
*1130 FILLER_0_35_169
*1131 FILLER_0_35_181
*1132 FILLER_0_35_193
*1133 FILLER_0_35_205
*1134 FILLER_0_35_217
*1135 FILLER_0_35_223
*1136 FILLER_0_35_225
*1137 FILLER_0_35_237
*1138 FILLER_0_35_249
*1139 FILLER_0_35_261
*1140 FILLER_0_35_27
*1141 FILLER_0_35_273
*1142 FILLER_0_35_279
*1143 FILLER_0_35_281
*1144 FILLER_0_35_293
*1145 FILLER_0_35_3
*1146 FILLER_0_35_305
*1147 FILLER_0_35_317
*1148 FILLER_0_35_329
*1149 FILLER_0_35_335
*1150 FILLER_0_35_337
*1151 FILLER_0_35_349
*1152 FILLER_0_35_39
*1153 FILLER_0_35_51
*1154 FILLER_0_35_55
*1155 FILLER_0_35_57
*1156 FILLER_0_35_69
*1157 FILLER_0_35_81
*1158 FILLER_0_35_93
*1159 FILLER_0_36_109
*1160 FILLER_0_36_121
*1161 FILLER_0_36_133
*1162 FILLER_0_36_139
*1163 FILLER_0_36_141
*1164 FILLER_0_36_15
*1165 FILLER_0_36_153
*1166 FILLER_0_36_165
*1167 FILLER_0_36_177
*1168 FILLER_0_36_189
*1169 FILLER_0_36_195
*1170 FILLER_0_36_197
*1171 FILLER_0_36_209
*1172 FILLER_0_36_221
*1173 FILLER_0_36_233
*1174 FILLER_0_36_245
*1175 FILLER_0_36_251
*1176 FILLER_0_36_253
*1177 FILLER_0_36_265
*1178 FILLER_0_36_27
*1179 FILLER_0_36_277
*1180 FILLER_0_36_289
*1181 FILLER_0_36_29
*1182 FILLER_0_36_3
*1183 FILLER_0_36_301
*1184 FILLER_0_36_307
*1185 FILLER_0_36_309
*1186 FILLER_0_36_321
*1187 FILLER_0_36_333
*1188 FILLER_0_36_345
*1189 FILLER_0_36_41
*1190 FILLER_0_36_53
*1191 FILLER_0_36_65
*1192 FILLER_0_36_77
*1193 FILLER_0_36_83
*1194 FILLER_0_36_85
*1195 FILLER_0_36_97
*1196 FILLER_0_37_105
*1197 FILLER_0_37_111
*1198 FILLER_0_37_113
*1199 FILLER_0_37_125
*1200 FILLER_0_37_137
*1201 FILLER_0_37_149
*1202 FILLER_0_37_15
*1203 FILLER_0_37_161
*1204 FILLER_0_37_167
*1205 FILLER_0_37_169
*1206 FILLER_0_37_181
*1207 FILLER_0_37_193
*1208 FILLER_0_37_205
*1209 FILLER_0_37_217
*1210 FILLER_0_37_223
*1211 FILLER_0_37_225
*1212 FILLER_0_37_237
*1213 FILLER_0_37_249
*1214 FILLER_0_37_261
*1215 FILLER_0_37_27
*1216 FILLER_0_37_273
*1217 FILLER_0_37_279
*1218 FILLER_0_37_281
*1219 FILLER_0_37_293
*1220 FILLER_0_37_3
*1221 FILLER_0_37_305
*1222 FILLER_0_37_317
*1223 FILLER_0_37_329
*1224 FILLER_0_37_335
*1225 FILLER_0_37_337
*1226 FILLER_0_37_349
*1227 FILLER_0_37_39
*1228 FILLER_0_37_51
*1229 FILLER_0_37_55
*1230 FILLER_0_37_57
*1231 FILLER_0_37_69
*1232 FILLER_0_37_81
*1233 FILLER_0_37_93
*1234 FILLER_0_38_109
*1235 FILLER_0_38_121
*1236 FILLER_0_38_133
*1237 FILLER_0_38_139
*1238 FILLER_0_38_141
*1239 FILLER_0_38_15
*1240 FILLER_0_38_153
*1241 FILLER_0_38_165
*1242 FILLER_0_38_177
*1243 FILLER_0_38_189
*1244 FILLER_0_38_195
*1245 FILLER_0_38_197
*1246 FILLER_0_38_209
*1247 FILLER_0_38_221
*1248 FILLER_0_38_233
*1249 FILLER_0_38_245
*1250 FILLER_0_38_251
*1251 FILLER_0_38_253
*1252 FILLER_0_38_265
*1253 FILLER_0_38_27
*1254 FILLER_0_38_277
*1255 FILLER_0_38_289
*1256 FILLER_0_38_29
*1257 FILLER_0_38_3
*1258 FILLER_0_38_301
*1259 FILLER_0_38_307
*1260 FILLER_0_38_309
*1261 FILLER_0_38_321
*1262 FILLER_0_38_333
*1263 FILLER_0_38_345
*1264 FILLER_0_38_41
*1265 FILLER_0_38_53
*1266 FILLER_0_38_65
*1267 FILLER_0_38_77
*1268 FILLER_0_38_83
*1269 FILLER_0_38_85
*1270 FILLER_0_38_97
*1271 FILLER_0_39_105
*1272 FILLER_0_39_111
*1273 FILLER_0_39_113
*1274 FILLER_0_39_125
*1275 FILLER_0_39_137
*1276 FILLER_0_39_149
*1277 FILLER_0_39_15
*1278 FILLER_0_39_161
*1279 FILLER_0_39_167
*1280 FILLER_0_39_169
*1281 FILLER_0_39_181
*1282 FILLER_0_39_193
*1283 FILLER_0_39_205
*1284 FILLER_0_39_217
*1285 FILLER_0_39_223
*1286 FILLER_0_39_225
*1287 FILLER_0_39_237
*1288 FILLER_0_39_249
*1289 FILLER_0_39_261
*1290 FILLER_0_39_27
*1291 FILLER_0_39_273
*1292 FILLER_0_39_279
*1293 FILLER_0_39_281
*1294 FILLER_0_39_293
*1295 FILLER_0_39_3
*1296 FILLER_0_39_305
*1297 FILLER_0_39_317
*1298 FILLER_0_39_329
*1299 FILLER_0_39_335
*1300 FILLER_0_39_337
*1301 FILLER_0_39_349
*1302 FILLER_0_39_39
*1303 FILLER_0_39_51
*1304 FILLER_0_39_55
*1305 FILLER_0_39_57
*1306 FILLER_0_39_69
*1307 FILLER_0_39_81
*1308 FILLER_0_39_93
*1309 FILLER_0_3_105
*1310 FILLER_0_3_111
*1311 FILLER_0_3_113
*1312 FILLER_0_3_125
*1313 FILLER_0_3_137
*1314 FILLER_0_3_149
*1315 FILLER_0_3_15
*1316 FILLER_0_3_161
*1317 FILLER_0_3_167
*1318 FILLER_0_3_169
*1319 FILLER_0_3_181
*1320 FILLER_0_3_193
*1321 FILLER_0_3_205
*1322 FILLER_0_3_217
*1323 FILLER_0_3_223
*1324 FILLER_0_3_225
*1325 FILLER_0_3_237
*1326 FILLER_0_3_249
*1327 FILLER_0_3_261
*1328 FILLER_0_3_27
*1329 FILLER_0_3_273
*1330 FILLER_0_3_279
*1331 FILLER_0_3_281
*1332 FILLER_0_3_293
*1333 FILLER_0_3_3
*1334 FILLER_0_3_305
*1335 FILLER_0_3_317
*1336 FILLER_0_3_329
*1337 FILLER_0_3_335
*1338 FILLER_0_3_337
*1339 FILLER_0_3_349
*1340 FILLER_0_3_39
*1341 FILLER_0_3_51
*1342 FILLER_0_3_55
*1343 FILLER_0_3_57
*1344 FILLER_0_3_69
*1345 FILLER_0_3_81
*1346 FILLER_0_3_93
*1347 FILLER_0_40_109
*1348 FILLER_0_40_121
*1349 FILLER_0_40_133
*1350 FILLER_0_40_139
*1351 FILLER_0_40_141
*1352 FILLER_0_40_15
*1353 FILLER_0_40_153
*1354 FILLER_0_40_165
*1355 FILLER_0_40_177
*1356 FILLER_0_40_189
*1357 FILLER_0_40_195
*1358 FILLER_0_40_197
*1359 FILLER_0_40_209
*1360 FILLER_0_40_221
*1361 FILLER_0_40_233
*1362 FILLER_0_40_245
*1363 FILLER_0_40_251
*1364 FILLER_0_40_253
*1365 FILLER_0_40_265
*1366 FILLER_0_40_27
*1367 FILLER_0_40_277
*1368 FILLER_0_40_289
*1369 FILLER_0_40_29
*1370 FILLER_0_40_3
*1371 FILLER_0_40_301
*1372 FILLER_0_40_307
*1373 FILLER_0_40_309
*1374 FILLER_0_40_321
*1375 FILLER_0_40_333
*1376 FILLER_0_40_345
*1377 FILLER_0_40_41
*1378 FILLER_0_40_53
*1379 FILLER_0_40_65
*1380 FILLER_0_40_77
*1381 FILLER_0_40_83
*1382 FILLER_0_40_85
*1383 FILLER_0_40_97
*1384 FILLER_0_41_105
*1385 FILLER_0_41_111
*1386 FILLER_0_41_113
*1387 FILLER_0_41_125
*1388 FILLER_0_41_137
*1389 FILLER_0_41_149
*1390 FILLER_0_41_15
*1391 FILLER_0_41_161
*1392 FILLER_0_41_167
*1393 FILLER_0_41_169
*1394 FILLER_0_41_181
*1395 FILLER_0_41_193
*1396 FILLER_0_41_205
*1397 FILLER_0_41_217
*1398 FILLER_0_41_223
*1399 FILLER_0_41_225
*1400 FILLER_0_41_237
*1401 FILLER_0_41_249
*1402 FILLER_0_41_261
*1403 FILLER_0_41_27
*1404 FILLER_0_41_273
*1405 FILLER_0_41_279
*1406 FILLER_0_41_281
*1407 FILLER_0_41_293
*1408 FILLER_0_41_3
*1409 FILLER_0_41_305
*1410 FILLER_0_41_317
*1411 FILLER_0_41_329
*1412 FILLER_0_41_335
*1413 FILLER_0_41_337
*1414 FILLER_0_41_349
*1415 FILLER_0_41_39
*1416 FILLER_0_41_51
*1417 FILLER_0_41_55
*1418 FILLER_0_41_57
*1419 FILLER_0_41_69
*1420 FILLER_0_41_81
*1421 FILLER_0_41_93
*1422 FILLER_0_42_109
*1423 FILLER_0_42_121
*1424 FILLER_0_42_133
*1425 FILLER_0_42_139
*1426 FILLER_0_42_141
*1427 FILLER_0_42_15
*1428 FILLER_0_42_153
*1429 FILLER_0_42_165
*1430 FILLER_0_42_177
*1431 FILLER_0_42_189
*1432 FILLER_0_42_195
*1433 FILLER_0_42_197
*1434 FILLER_0_42_209
*1435 FILLER_0_42_221
*1436 FILLER_0_42_233
*1437 FILLER_0_42_245
*1438 FILLER_0_42_251
*1439 FILLER_0_42_253
*1440 FILLER_0_42_265
*1441 FILLER_0_42_27
*1442 FILLER_0_42_277
*1443 FILLER_0_42_289
*1444 FILLER_0_42_29
*1445 FILLER_0_42_3
*1446 FILLER_0_42_301
*1447 FILLER_0_42_307
*1448 FILLER_0_42_309
*1449 FILLER_0_42_321
*1450 FILLER_0_42_333
*1451 FILLER_0_42_345
*1452 FILLER_0_42_41