*SPEF "ieee 1481-1999"
*DESIGN "tt_um_pwm"
*DATE "11:11:11 Fri 11 11, 1111"
*VENDOR "OpenRCX"
*PROGRAM "Parallel Extraction"
*VERSION "1.0"
*DESIGN_FLOW "NAME_SCOPE LOCAL" "PIN_CAP NONE"
*DIVIDER /
*DELIMITER :
*BUS_DELIMITER []
*T_UNIT 1 NS
*C_UNIT 1 PF
*R_UNIT 1 OHM
*L_UNIT 1 HENRY

*NAME_MAP
*3 clk
*4 ena
*5 rst_n
*6 ui_in[0]
*7 ui_in[1]
*8 ui_in[2]
*9 ui_in[3]
*10 ui_in[4]
*11 ui_in[5]
*12 ui_in[6]
*13 ui_in[7]
*14 uio_in[0]
*15 uio_in[1]
*16 uio_in[2]
*17 uio_in[3]
*18 uio_in[4]
*19 uio_in[5]
*20 uio_in[6]
*21 uio_in[7]
*22 net3
*23 net4
*24 net5
*25 net6
*26 net7
*27 net8
*28 net9
*29 net10
*30 net11
*31 net12
*32 net13
*33 net14
*34 net15
*35 net16
*36 net17
*37 net18
*38 uo_out[0]
*39 net19
*40 net20
*41 net21
*42 net22
*43 net23
*44 net24
*45 net25
*46 DUTY_CYCLE\[0\]
*47 DUTY_CYCLE\[1\]
*48 DUTY_CYCLE\[2\]
*49 DUTY_CYCLE\[3\]
*50 PWM_DFF1\.Q
*51 PWM_DFF2\.Q
*52 PWM_DFF3\.Q
*53 PWM_DFF4\.Q
*54 _000_
*55 _001_
*56 _002_
*57 _003_
*58 _004_
*59 _005_
*60 _006_
*61 _007_
*62 _008_
*63 _009_
*64 _010_
*65 _038_
*66 _039_
*67 _040_
*68 _041_
*69 _042_
*70 _043_
*71 _044_
*72 _045_
*73 _046_
*74 _047_
*75 _048_
*76 _049_
*77 _050_
*78 _051_
*79 _052_
*80 _053_
*81 _054_
*82 _055_
*83 _056_
*84 _057_
*85 _058_
*86 _059_
*87 _060_
*88 _061_
*89 _062_
*90 _063_
*91 _064_
*92 _065_
*93 _066_
*94 _067_
*95 _068_
*96 _069_
*97 _070_
*98 _071_
*99 _072_
*100 _073_
*101 _074_
*102 _075_
*103 _076_
*104 _077_
*105 _078_
*106 _079_
*107 _080_
*108 _081_
*109 _082_
*110 _083_
*111 _084_
*112 _085_
*113 _086_
*114 _087_
*115 _088_
*116 _089_
*117 _090_
*118 clknet_0_clk
*119 clknet_2_0__leaf_clk
*120 clknet_2_1__leaf_clk
*121 clknet_2_2__leaf_clk
*122 clknet_2_3__leaf_clk
*123 counter_PWM\[0\]
*124 counter_PWM\[1\]
*125 counter_PWM\[2\]
*126 counter_PWM\[3\]
*127 counter_debounce\[0\]
*128 counter_debounce\[10\]
*129 counter_debounce\[11\]
*130 counter_debounce\[12\]
*131 counter_debounce\[13\]
*132 counter_debounce\[14\]
*133 counter_debounce\[15\]
*134 counter_debounce\[16\]
*135 counter_debounce\[17\]
*136 counter_debounce\[18\]
*137 counter_debounce\[19\]
*138 counter_debounce\[1\]
*139 counter_debounce\[20\]
*140 counter_debounce\[21\]
*141 counter_debounce\[22\]
*142 counter_debounce\[23\]
*143 counter_debounce\[24\]
*144 counter_debounce\[25\]
*145 counter_debounce\[26\]
*146 counter_debounce\[27\]
*147 counter_debounce\[2\]
*148 counter_debounce\[3\]
*149 counter_debounce\[4\]
*150 counter_debounce\[5\]
*151 counter_debounce\[6\]
*152 counter_debounce\[7\]
*153 counter_debounce\[8\]
*154 counter_debounce\[9\]
*155 net1
*156 net2
*157 net26
*158 net27
*159 net28
*160 net29
*161 net30
*162 net31
*163 net32
*164 net33
*165 net34
*166 net35
*167 net36
*168 net37
*169 net38
*170 net39
*171 net40
*172 net41
*173 net42
*174 net43
*175 net44
*176 net45
*177 net46
*178 net47
*179 net48
*180 net49
*181 net50
*182 net51
*183 net52
*184 net53
*185 net54
*186 net55
*187 net56
*188 net57
*189 net58
*190 net59
*191 net60
*192 net61
*193 net62
*194 FILLER_0_0_109
*195 FILLER_0_0_113
*196 FILLER_0_0_125
*197 FILLER_0_0_137
*198 FILLER_0_0_141
*199 FILLER_0_0_15
*200 FILLER_0_0_153
*201 FILLER_0_0_165
*202 FILLER_0_0_169
*203 FILLER_0_0_181
*204 FILLER_0_0_193
*205 FILLER_0_0_197
*206 FILLER_0_0_209
*207 FILLER_0_0_221
*208 FILLER_0_0_225
*209 FILLER_0_0_237
*210 FILLER_0_0_249
*211 FILLER_0_0_253
*212 FILLER_0_0_265
*213 FILLER_0_0_27
*214 FILLER_0_0_277
*215 FILLER_0_0_281
*216 FILLER_0_0_29
*217 FILLER_0_0_293
*218 FILLER_0_0_3
*219 FILLER_0_0_305
*220 FILLER_0_0_309
*221 FILLER_0_0_321
*222 FILLER_0_0_333
*223 FILLER_0_0_337
*224 FILLER_0_0_349
*225 FILLER_0_0_41
*226 FILLER_0_0_53
*227 FILLER_0_0_57
*228 FILLER_0_0_69
*229 FILLER_0_0_81
*230 FILLER_0_0_85
*231 FILLER_0_0_97
*232 FILLER_0_10_109
*233 FILLER_0_10_121
*234 FILLER_0_10_133
*235 FILLER_0_10_139
*236 FILLER_0_10_141
*237 FILLER_0_10_15
*238 FILLER_0_10_153
*239 FILLER_0_10_165
*240 FILLER_0_10_177
*241 FILLER_0_10_189
*242 FILLER_0_10_195
*243 FILLER_0_10_197
*244 FILLER_0_10_209
*245 FILLER_0_10_221
*246 FILLER_0_10_233
*247 FILLER_0_10_245
*248 FILLER_0_10_251
*249 FILLER_0_10_253
*250 FILLER_0_10_265
*251 FILLER_0_10_27
*252 FILLER_0_10_277
*253 FILLER_0_10_289
*254 FILLER_0_10_29
*255 FILLER_0_10_3
*256 FILLER_0_10_301
*257 FILLER_0_10_307
*258 FILLER_0_10_309
*259 FILLER_0_10_321
*260 FILLER_0_10_333
*261 FILLER_0_10_345
*262 FILLER_0_10_41
*263 FILLER_0_10_53
*264 FILLER_0_10_65
*265 FILLER_0_10_77
*266 FILLER_0_10_83
*267 FILLER_0_10_85
*268 FILLER_0_10_97
*269 FILLER_0_11_105
*270 FILLER_0_11_111
*271 FILLER_0_11_113
*272 FILLER_0_11_125
*273 FILLER_0_11_137
*274 FILLER_0_11_149
*275 FILLER_0_11_15
*276 FILLER_0_11_161
*277 FILLER_0_11_167
*278 FILLER_0_11_169
*279 FILLER_0_11_181
*280 FILLER_0_11_193
*281 FILLER_0_11_205
*282 FILLER_0_11_217
*283 FILLER_0_11_223
*284 FILLER_0_11_225
*285 FILLER_0_11_237
*286 FILLER_0_11_249
*287 FILLER_0_11_261
*288 FILLER_0_11_27
*289 FILLER_0_11_273
*290 FILLER_0_11_279
*291 FILLER_0_11_281
*292 FILLER_0_11_293
*293 FILLER_0_11_3
*294 FILLER_0_11_305
*295 FILLER_0_11_317
*296 FILLER_0_11_329
*297 FILLER_0_11_335
*298 FILLER_0_11_337
*299 FILLER_0_11_349
*300 FILLER_0_11_39
*301 FILLER_0_11_51
*302 FILLER_0_11_55
*303 FILLER_0_11_57
*304 FILLER_0_11_69
*305 FILLER_0_11_81
*306 FILLER_0_11_93
*307 FILLER_0_12_109
*308 FILLER_0_12_121
*309 FILLER_0_12_133
*310 FILLER_0_12_139
*311 FILLER_0_12_141
*312 FILLER_0_12_15
*313 FILLER_0_12_153
*314 FILLER_0_12_165
*315 FILLER_0_12_177
*316 FILLER_0_12_189
*317 FILLER_0_12_195
*318 FILLER_0_12_197
*319 FILLER_0_12_209
*320 FILLER_0_12_221
*321 FILLER_0_12_233
*322 FILLER_0_12_245
*323 FILLER_0_12_251
*324 FILLER_0_12_253
*325 FILLER_0_12_265
*326 FILLER_0_12_27
*327 FILLER_0_12_277
*328 FILLER_0_12_289
*329 FILLER_0_12_29
*330 FILLER_0_12_3
*331 FILLER_0_12_301
*332 FILLER_0_12_307
*333 FILLER_0_12_309
*334 FILLER_0_12_321
*335 FILLER_0_12_333
*336 FILLER_0_12_345
*337 FILLER_0_12_41
*338 FILLER_0_12_53
*339 FILLER_0_12_65
*340 FILLER_0_12_77
*341 FILLER_0_12_83
*342 FILLER_0_12_85
*343 FILLER_0_12_97
*344 FILLER_0_13_105
*345 FILLER_0_13_111
*346 FILLER_0_13_113
*347 FILLER_0_13_125
*348 FILLER_0_13_137
*349 FILLER_0_13_149
*350 FILLER_0_13_15
*351 FILLER_0_13_161
*352 FILLER_0_13_167
*353 FILLER_0_13_169
*354 FILLER_0_13_181
*355 FILLER_0_13_193
*356 FILLER_0_13_205
*357 FILLER_0_13_217
*358 FILLER_0_13_223
*359 FILLER_0_13_225
*360 FILLER_0_13_237
*361 FILLER_0_13_249
*362 FILLER_0_13_261
*363 FILLER_0_13_27
*364 FILLER_0_13_273
*365 FILLER_0_13_279
*366 FILLER_0_13_281
*367 FILLER_0_13_293
*368 FILLER_0_13_3
*369 FILLER_0_13_305
*370 FILLER_0_13_317
*371 FILLER_0_13_329
*372 FILLER_0_13_335
*373 FILLER_0_13_337
*374 FILLER_0_13_349
*375 FILLER_0_13_39
*376 FILLER_0_13_51
*377 FILLER_0_13_55
*378 FILLER_0_13_57
*379 FILLER_0_13_69
*380 FILLER_0_13_81
*381 FILLER_0_13_93
*382 FILLER_0_14_109
*383 FILLER_0_14_121
*384 FILLER_0_14_133
*385 FILLER_0_14_139
*386 FILLER_0_14_141
*387 FILLER_0_14_15
*388 FILLER_0_14_153
*389 FILLER_0_14_165
*390 FILLER_0_14_177
*391 FILLER_0_14_189
*392 FILLER_0_14_195
*393 FILLER_0_14_197
*394 FILLER_0_14_209
*395 FILLER_0_14_221
*396 FILLER_0_14_233
*397 FILLER_0_14_245
*398 FILLER_0_14_251
*399 FILLER_0_14_253
*400 FILLER_0_14_265
*401 FILLER_0_14_27
*402 FILLER_0_14_277
*403 FILLER_0_14_289
*404 FILLER_0_14_29
*405 FILLER_0_14_3
*406 FILLER_0_14_301
*407 FILLER_0_14_307
*408 FILLER_0_14_309
*409 FILLER_0_14_321
*410 FILLER_0_14_333
*411 FILLER_0_14_345
*412 FILLER_0_14_41
*413 FILLER_0_14_53
*414 FILLER_0_14_65
*415 FILLER_0_14_77
*416 FILLER_0_14_83
*417 FILLER_0_14_85
*418 FILLER_0_14_97
*419 FILLER_0_15_105
*420 FILLER_0_15_111
*421 FILLER_0_15_113
*422 FILLER_0_15_125
*423 FILLER_0_15_137
*424 FILLER_0_15_149
*425 FILLER_0_15_15
*426 FILLER_0_15_161
*427 FILLER_0_15_167
*428 FILLER_0_15_169
*429 FILLER_0_15_181
*430 FILLER_0_15_193
*431 FILLER_0_15_205
*432 FILLER_0_15_217
*433 FILLER_0_15_223
*434 FILLER_0_15_225
*435 FILLER_0_15_237
*436 FILLER_0_15_249
*437 FILLER_0_15_261
*438 FILLER_0_15_27
*439 FILLER_0_15_273
*440 FILLER_0_15_279
*441 FILLER_0_15_281
*442 FILLER_0_15_293
*443 FILLER_0_15_3
*444 FILLER_0_15_305
*445 FILLER_0_15_317
*446 FILLER_0_15_329
*447 FILLER_0_15_335
*448 FILLER_0_15_337
*449 FILLER_0_15_349
*450 FILLER_0_15_39
*451 FILLER_0_15_51
*452 FILLER_0_15_55
*453 FILLER_0_15_57
*454 FILLER_0_15_69
*455 FILLER_0_15_81
*456 FILLER_0_15_93
*457 FILLER_0_16_109
*458 FILLER_0_16_121
*459 FILLER_0_16_133
*460 FILLER_0_16_139
*461 FILLER_0_16_141
*462 FILLER_0_16_15
*463 FILLER_0_16_153
*464 FILLER_0_16_165
*465 FILLER_0_16_177
*466 FILLER_0_16_189
*467 FILLER_0_16_195
*468 FILLER_0_16_197
*469 FILLER_0_16_209
*470 FILLER_0_16_221
*471 FILLER_0_16_233
*472 FILLER_0_16_245
*473 FILLER_0_16_251
*474 FILLER_0_16_253
*475 FILLER_0_16_265
*476 FILLER_0_16_27
*477 FILLER_0_16_277
*478 FILLER_0_16_289
*479 FILLER_0_16_29
*480 FILLER_0_16_3
*481 FILLER_0_16_301
*482 FILLER_0_16_307
*483 FILLER_0_16_309
*484 FILLER_0_16_321
*485 FILLER_0_16_333
*486 FILLER_0_16_345
*487 FILLER_0_16_41
*488 FILLER_0_16_53
*489 FILLER_0_16_65
*490 FILLER_0_16_77
*491 FILLER_0_16_83
*492 FILLER_0_16_85
*493 FILLER_0_16_97
*494 FILLER_0_17_105
*495 FILLER_0_17_111
*496 FILLER_0_17_113
*497 FILLER_0_17_125
*498 FILLER_0_17_137
*499 FILLER_0_17_149
*500 FILLER_0_17_15
*501 FILLER_0_17_161
*502 FILLER_0_17_167
*503 FILLER_0_17_169
*504 FILLER_0_17_181
*505 FILLER_0_17_193
*506 FILLER_0_17_205
*507 FILLER_0_17_217
*508 FILLER_0_17_223
*509 FILLER_0_17_225
*510 FILLER_0_17_237
*511 FILLER_0_17_249
*512 FILLER_0_17_261
*513 FILLER_0_17_27
*514 FILLER_0_17_273
*515 FILLER_0_17_279
*516 FILLER_0_17_281
*517 FILLER_0_17_293
*518 FILLER_0_17_3
*519 FILLER_0_17_305
*520 FILLER_0_17_317
*521 FILLER_0_17_329
*522 FILLER_0_17_335
*523 FILLER_0_17_337
*524 FILLER_0_17_349
*525 FILLER_0_17_39
*526 FILLER_0_17_51
*527 FILLER_0_17_55
*528 FILLER_0_17_57
*529 FILLER_0_17_69
*530 FILLER_0_17_81
*531 FILLER_0_17_93
*532 FILLER_0_18_109
*533 FILLER_0_18_121
*534 FILLER_0_18_133
*535 FILLER_0_18_139
*536 FILLER_0_18_141
*537 FILLER_0_18_15
*538 FILLER_0_18_153
*539 FILLER_0_18_165
*540 FILLER_0_18_177
*541 FILLER_0_18_189
*542 FILLER_0_18_195
*543 FILLER_0_18_197
*544 FILLER_0_18_209
*545 FILLER_0_18_221
*546 FILLER_0_18_233
*547 FILLER_0_18_245
*548 FILLER_0_18_251
*549 FILLER_0_18_253
*550 FILLER_0_18_265
*551 FILLER_0_18_27
*552 FILLER_0_18_277
*553 FILLER_0_18_289
*554 FILLER_0_18_29
*555 FILLER_0_18_3
*556 FILLER_0_18_301
*557 FILLER_0_18_307
*558 FILLER_0_18_309
*559 FILLER_0_18_321
*560 FILLER_0_18_333
*561 FILLER_0_18_345
*562 FILLER_0_18_41
*563 FILLER_0_18_53
*564 FILLER_0_18_65
*565 FILLER_0_18_77
*566 FILLER_0_18_83
*567 FILLER_0_18_85
*568 FILLER_0_18_97
*569 FILLER_0_19_105
*570 FILLER_0_19_111
*571 FILLER_0_19_113
*572 FILLER_0_19_125
*573 FILLER_0_19_137
*574 FILLER_0_19_149
*575 FILLER_0_19_15
*576 FILLER_0_19_161
*577 FILLER_0_19_167
*578 FILLER_0_19_169
*579 FILLER_0_19_181
*580 FILLER_0_19_193
*581 FILLER_0_19_205
*582 FILLER_0_19_217
*583 FILLER_0_19_223
*584 FILLER_0_19_225
*585 FILLER_0_19_237
*586 FILLER_0_19_249
*587 FILLER_0_19_261
*588 FILLER_0_19_27
*589 FILLER_0_19_273
*590 FILLER_0_19_279
*591 FILLER_0_19_281
*592 FILLER_0_19_293
*593 FILLER_0_19_3
*594 FILLER_0_19_305
*595 FILLER_0_19_317
*596 FILLER_0_19_329
*597 FILLER_0_19_335
*598 FILLER_0_19_337
*599 FILLER_0_19_349
*600 FILLER_0_19_39
*601 FILLER_0_19_51
*602 FILLER_0_19_55
*603 FILLER_0_19_57
*604 FILLER_0_19_69
*605 FILLER_0_19_81
*606 FILLER_0_19_93
*607 FILLER_0_1_105
*608 FILLER_0_1_111
*609 FILLER_0_1_113
*610 FILLER_0_1_125
*611 FILLER_0_1_137
*612 FILLER_0_1_149
*613 FILLER_0_1_15
*614 FILLER_0_1_161
*615 FILLER_0_1_167
*616 FILLER_0_1_169
*617 FILLER_0_1_181
*618 FILLER_0_1_193
*619 FILLER_0_1_205
*620 FILLER_0_1_217
*621 FILLER_0_1_223
*622 FILLER_0_1_225
*623 FILLER_0_1_237
*624 FILLER_0_1_249
*625 FILLER_0_1_261
*626 FILLER_0_1_27
*627 FILLER_0_1_273
*628 FILLER_0_1_279
*629 FILLER_0_1_281
*630 FILLER_0_1_293
*631 FILLER_0_1_3
*632 FILLER_0_1_305
*633 FILLER_0_1_317
*634 FILLER_0_1_329
*635 FILLER_0_1_335
*636 FILLER_0_1_337
*637 FILLER_0_1_349
*638 FILLER_0_1_39
*639 FILLER_0_1_51
*640 FILLER_0_1_55
*641 FILLER_0_1_57
*642 FILLER_0_1_69
*643 FILLER_0_1_81
*644 FILLER_0_1_93
*645 FILLER_0_20_109
*646 FILLER_0_20_121
*647 FILLER_0_20_133
*648 FILLER_0_20_139
*649 FILLER_0_20_141
*650 FILLER_0_20_15
*651 FILLER_0_20_153
*652 FILLER_0_20_165
*653 FILLER_0_20_177
*654 FILLER_0_20_189
*655 FILLER_0_20_195
*656 FILLER_0_20_197
*657 FILLER_0_20_209
*658 FILLER_0_20_221
*659 FILLER_0_20_233
*660 FILLER_0_20_245
*661 FILLER_0_20_251
*662 FILLER_0_20_253
*663 FILLER_0_20_265
*664 FILLER_0_20_27
*665 FILLER_0_20_277
*666 FILLER_0_20_289
*667 FILLER_0_20_29
*668 FILLER_0_20_3
*669 FILLER_0_20_301
*670 FILLER_0_20_307
*671 FILLER_0_20_309
*672 FILLER_0_20_321
*673 FILLER_0_20_333
*674 FILLER_0_20_345
*675 FILLER_0_20_41
*676 FILLER_0_20_53
*677 FILLER_0_20_65
*678 FILLER_0_20_77
*679 FILLER_0_20_83
*680 FILLER_0_20_85
*681 FILLER_0_20_97
*682 FILLER_0_21_105
*683 FILLER_0_21_111
*684 FILLER_0_21_113
*685 FILLER_0_21_125
*686 FILLER_0_21_137
*687 FILLER_0_21_149
*688 FILLER_0_21_15
*689 FILLER_0_21_161
*690 FILLER_0_21_167
*691 FILLER_0_21_169
*692 FILLER_0_21_181
*693 FILLER_0_21_193
*694 FILLER_0_21_205
*695 FILLER_0_21_217
*696 FILLER_0_21_223
*697 FILLER_0_21_225
*698 FILLER_0_21_237
*699 FILLER_0_21_249
*700 FILLER_0_21_261
*701 FILLER_0_21_27
*702 FILLER_0_21_273
*703 FILLER_0_21_279
*704 FILLER_0_21_281
*705 FILLER_0_21_293
*706 FILLER_0_21_3
*707 FILLER_0_21_305
*708 FILLER_0_21_317
*709 FILLER_0_21_329
*710 FILLER_0_21_335
*711 FILLER_0_21_337
*712 FILLER_0_21_349
*713 FILLER_0_21_39
*714 FILLER_0_21_51
*715 FILLER_0_21_55
*716 FILLER_0_21_57
*717 FILLER_0_21_69
*718 FILLER_0_21_81
*719 FILLER_0_21_93
*720 FILLER_0_22_109
*721 FILLER_0_22_121
*722 FILLER_0_22_133
*723 FILLER_0_22_139
*724 FILLER_0_22_141
*725 FILLER_0_22_15
*726 FILLER_0_22_153
*727 FILLER_0_22_165
*728 FILLER_0_22_177
*729 FILLER_0_22_189
*730 FILLER_0_22_195
*731 FILLER_0_22_197
*732 FILLER_0_22_209
*733 FILLER_0_22_221
*734 FILLER_0_22_233
*735 FILLER_0_22_245
*736 FILLER_0_22_251
*737 FILLER_0_22_253
*738 FILLER_0_22_265
*739 FILLER_0_22_27
*740 FILLER_0_22_277
*741 FILLER_0_22_289
*742 FILLER_0_22_29
*743 FILLER_0_22_3
*744 FILLER_0_22_301
*745 FILLER_0_22_307
*746 FILLER_0_22_309
*747 FILLER_0_22_321
*748 FILLER_0_22_333
*749 FILLER_0_22_345
*750 FILLER_0_22_41
*751 FILLER_0_22_53
*752 FILLER_0_22_65
*753 FILLER_0_22_77
*754 FILLER_0_22_83
*755 FILLER_0_22_85
*756 FILLER_0_22_97
*757 FILLER_0_23_105
*758 FILLER_0_23_111
*759 FILLER_0_23_113
*760 FILLER_0_23_125
*761 FILLER_0_23_137
*762 FILLER_0_23_149
*763 FILLER_0_23_15
*764 FILLER_0_23_161
*765 FILLER_0_23_167
*766 FILLER_0_23_169
*767 FILLER_0_23_181
*768 FILLER_0_23_193
*769 FILLER_0_23_205
*770 FILLER_0_23_217
*771 FILLER_0_23_223
*772 FILLER_0_23_225
*773 FILLER_0_23_237
*774 FILLER_0_23_249
*775 FILLER_0_23_261
*776 FILLER_0_23_27
*777 FILLER_0_23_273
*778 FILLER_0_23_279
*779 FILLER_0_23_281
*780 FILLER_0_23_293
*781 FILLER_0_23_3
*782 FILLER_0_23_305
*783 FILLER_0_23_317
*784 FILLER_0_23_329
*785 FILLER_0_23_335
*786 FILLER_0_23_337
*787 FILLER_0_23_349
*788 FILLER_0_23_39
*789 FILLER_0_23_51
*790 FILLER_0_23_55
*791 FILLER_0_23_57
*792 FILLER_0_23_69
*793 FILLER_0_23_81
*794 FILLER_0_23_93
*795 FILLER_0_24_109
*796 FILLER_0_24_121
*797 FILLER_0_24_133
*798 FILLER_0_24_139
*799 FILLER_0_24_141
*800 FILLER_0_24_15
*801 FILLER_0_24_153
*802 FILLER_0_24_165
*803 FILLER_0_24_177
*804 FILLER_0_24_189
*805 FILLER_0_24_195
*806 FILLER_0_24_197
*807 FILLER_0_24_209
*808 FILLER_0_24_221
*809 FILLER_0_24_233
*810 FILLER_0_24_245
*811 FILLER_0_24_251
*812 FILLER_0_24_253
*813 FILLER_0_24_265
*814 FILLER_0_24_27
*815 FILLER_0_24_277
*816 FILLER_0_24_289
*817 FILLER_0_24_29
*818 FILLER_0_24_3
*819 FILLER_0_24_301
*820 FILLER_0_24_307
*821 FILLER_0_24_309
*822 FILLER_0_24_321
*823 FILLER_0_24_333
*824 FILLER_0_24_345
*825 FILLER_0_24_41
*826 FILLER_0_24_53
*827 FILLER_0_24_65
*828 FILLER_0_24_77
*829 FILLER_0_24_83
*830 FILLER_0_24_85
*831 FILLER_0_24_97
*832 FILLER_0_25_105
*833 FILLER_0_25_111
*834 FILLER_0_25_113
*835 FILLER_0_25_125
*836 FILLER_0_25_137
*837 FILLER_0_25_149
*838 FILLER_0_25_15
*839 FILLER_0_25_161
*840 FILLER_0_25_167
*841 FILLER_0_25_169
*842 FILLER_0_25_181
*843 FILLER_0_25_193
*844 FILLER_0_25_205
*845 FILLER_0_25_217
*846 FILLER_0_25_223
*847 FILLER_0_25_225
*848 FILLER_0_25_237
*849 FILLER_0_25_249
*850 FILLER_0_25_261
*851 FILLER_0_25_27
*852 FILLER_0_25_273
*853 FILLER_0_25_279
*854 FILLER_0_25_281
*855 FILLER_0_25_293
*856 FILLER_0_25_3
*857 FILLER_0_25_305
*858 FILLER_0_25_317
*859 FILLER_0_25_329
*860 FILLER_0_25_335
*861 FILLER_0_25_337
*862 FILLER_0_25_349
*863 FILLER_0_25_39
*864 FILLER_0_25_51
*865 FILLER_0_25_55
*866 FILLER_0_25_57
*867 FILLER_0_25_69
*868 FILLER_0_25_81
*869 FILLER_0_25_93
*870 FILLER_0_26_109
*871 FILLER_0_26_121
*872 FILLER_0_26_133
*873 FILLER_0_26_139
*874 FILLER_0_26_141
*875 FILLER_0_26_15
*876 FILLER_0_26_153
*877 FILLER_0_26_165
*878 FILLER_0_26_177
*879 FILLER_0_26_189
*880 FILLER_0_26_219
*881 FILLER_0_26_231
*882 FILLER_0_26_239
*883 FILLER_0_26_244
*884 FILLER_0_26_259
*885 FILLER_0_26_27
*886 FILLER_0_26_271
*887 FILLER_0_26_29
*888 FILLER_0_26_299
*889 FILLER_0_26_3
*890 FILLER_0_26_307
*891 FILLER_0_26_309
*892 FILLER_0_26_321
*893 FILLER_0_26_333
*894 FILLER_0_26_345
*895 FILLER_0_26_41
*896 FILLER_0_26_53
*897 FILLER_0_26_65
*898 FILLER_0_26_77
*899 FILLER_0_26_83
*900 FILLER_0_26_85
*901 FILLER_0_26_97
*902 FILLER_0_27_105
*903 FILLER_0_27_111
*904 FILLER_0_27_113
*905 FILLER_0_27_125
*906 FILLER_0_27_137
*907 FILLER_0_27_149
*908 FILLER_0_27_15
*909 FILLER_0_27_161
*910 FILLER_0_27_167
*911 FILLER_0_27_169
*912 FILLER_0_27_181
*913 FILLER_0_27_222
*914 FILLER_0_27_225
*915 FILLER_0_27_233
*916 FILLER_0_27_252
*917 FILLER_0_27_269
*918 FILLER_0_27_27
*919 FILLER_0_27_277
*920 FILLER_0_27_3
*921 FILLER_0_27_300
*922 FILLER_0_27_312
*923 FILLER_0_27_324
*924 FILLER_0_27_337
*925 FILLER_0_27_349
*926 FILLER_0_27_39
*927 FILLER_0_27_51
*928 FILLER_0_27_55
*929 FILLER_0_27_57
*930 FILLER_0_27_69
*931 FILLER_0_27_81
*932 FILLER_0_27_93
*933 FILLER_0_28_109
*934 FILLER_0_28_121
*935 FILLER_0_28_133
*936 FILLER_0_28_139
*937 FILLER_0_28_141
*938 FILLER_0_28_15
*939 FILLER_0_28_153
*940 FILLER_0_28_165
*941 FILLER_0_28_177
*942 FILLER_0_28_189
*943 FILLER_0_28_217
*944 FILLER_0_28_225
*945 FILLER_0_28_250
*946 FILLER_0_28_27
*947 FILLER_0_28_273
*948 FILLER_0_28_29
*949 FILLER_0_28_3
*950 FILLER_0_28_307
*951 FILLER_0_28_309
*952 FILLER_0_28_321
*953 FILLER_0_28_333
*954 FILLER_0_28_345
*955 FILLER_0_28_41
*956 FILLER_0_28_53
*957 FILLER_0_28_65
*958 FILLER_0_28_77
*959 FILLER_0_28_83
*960 FILLER_0_28_85
*961 FILLER_0_28_97
*962 FILLER_0_29_105
*963 FILLER_0_29_111
*964 FILLER_0_29_113
*965 FILLER_0_29_125
*966 FILLER_0_29_137
*967 FILLER_0_29_149
*968 FILLER_0_29_15
*969 FILLER_0_29_161
*970 FILLER_0_29_167
*971 FILLER_0_29_169
*972 FILLER_0_29_181
*973 FILLER_0_29_219
*974 FILLER_0_29_223
*975 FILLER_0_29_257
*976 FILLER_0_29_269
*977 FILLER_0_29_27
*978 FILLER_0_29_276
*979 FILLER_0_29_281
*980 FILLER_0_29_299
*981 FILLER_0_29_3
*982 FILLER_0_29_311
*983 FILLER_0_29_323
*984 FILLER_0_29_335
*985 FILLER_0_29_337
*986 FILLER_0_29_349
*987 FILLER_0_29_39
*988 FILLER_0_29_51
*989 FILLER_0_29_55
*990 FILLER_0_29_57
*991 FILLER_0_29_69
*992 FILLER_0_29_81
*993 FILLER_0_29_93
*994 FILLER_0_2_109
*995 FILLER_0_2_121
*996 FILLER_0_2_133
*997 FILLER_0_2_139
*998 FILLER_0_2_141
*999 FILLER_0_2_15
*1000 FILLER_0_2_153
*1001 FILLER_0_2_165
*1002 FILLER_0_2_177
*1003 FILLER_0_2_189
*1004 FILLER_0_2_195
*1005 FILLER_0_2_197
*1006 FILLER_0_2_209
*1007 FILLER_0_2_221
*1008 FILLER_0_2_233
*1009 FILLER_0_2_245
*1010 FILLER_0_2_251
*1011 FILLER_0_2_253
*1012 FILLER_0_2_265
*1013 FILLER_0_2_27
*1014 FILLER_0_2_277
*1015 FILLER_0_2_289
*1016 FILLER_0_2_29
*1017 FILLER_0_2_3
*1018 FILLER_0_2_301
*1019 FILLER_0_2_307
*1020 FILLER_0_2_309
*1021 FILLER_0_2_321
*1022 FILLER_0_2_333
*1023 FILLER_0_2_345
*1024 FILLER_0_2_41
*1025 FILLER_0_2_53
*1026 FILLER_0_2_65
*1027 FILLER_0_2_77
*1028 FILLER_0_2_83
*1029 FILLER_0_2_85
*1030 FILLER_0_2_97
*1031 FILLER_0_30_109
*1032 FILLER_0_30_121
*1033 FILLER_0_30_133
*1034 FILLER_0_30_139
*1035 FILLER_0_30_141
*1036 FILLER_0_30_15
*1037 FILLER_0_30_153
*1038 FILLER_0_30_165
*1039 FILLER_0_30_177
*1040 FILLER_0_30_195
*1041 FILLER_0_30_213
*1042 FILLER_0_30_235
*1043 FILLER_0_30_251
*1044 FILLER_0_30_253
*1045 FILLER_0_30_265
*1046 FILLER_0_30_27
*1047 FILLER_0_30_283
*1048 FILLER_0_30_29
*1049 FILLER_0_30_290
*1050 FILLER_0_30_298
*1051 FILLER_0_30_3
*1052 FILLER_0_30_306
*1053 FILLER_0_30_312
*1054 FILLER_0_30_324
*1055 FILLER_0_30_341
*1056 FILLER_0_30_349
*1057 FILLER_0_30_41
*1058 FILLER_0_30_53
*1059 FILLER_0_30_65
*1060 FILLER_0_30_77
*1061 FILLER_0_30_83
*1062 FILLER_0_30_85
*1063 FILLER_0_30_97
*1064 FILLER_0_31_105
*1065 FILLER_0_31_111
*1066 FILLER_0_31_113
*1067 FILLER_0_31_125
*1068 FILLER_0_31_137
*1069 FILLER_0_31_149
*1070 FILLER_0_31_15
*1071 FILLER_0_31_161
*1072 FILLER_0_31_167
*1073 FILLER_0_31_169
*1074 FILLER_0_31_181
*1075 FILLER_0_31_185
*1076 FILLER_0_31_241
*1077 FILLER_0_31_253
*1078 FILLER_0_31_27
*1079 FILLER_0_31_3
*1080 FILLER_0_31_343
*1081 FILLER_0_31_39
*1082 FILLER_0_31_51
*1083 FILLER_0_31_55
*1084 FILLER_0_31_57
*1085 FILLER_0_31_69
*1086 FILLER_0_31_81
*1087 FILLER_0_31_93
*1088 FILLER_0_32_109
*1089 FILLER_0_32_121
*1090 FILLER_0_32_133
*1091 FILLER_0_32_139
*1092 FILLER_0_32_141
*1093 FILLER_0_32_15
*1094 FILLER_0_32_153
*1095 FILLER_0_32_165
*1096 FILLER_0_32_177
*1097 FILLER_0_32_189
*1098 FILLER_0_32_217
*1099 FILLER_0_32_223
*1100 FILLER_0_32_227
*1101 FILLER_0_32_239
*1102 FILLER_0_32_251
*1103 FILLER_0_32_253
*1104 FILLER_0_32_27
*1105 FILLER_0_32_276
*1106 FILLER_0_32_29
*1107 FILLER_0_32_3
*1108 FILLER_0_32_325
*1109 FILLER_0_32_342
*1110 FILLER_0_32_350
*1111 FILLER_0_32_41
*1112 FILLER_0_32_53
*1113 FILLER_0_32_65
*1114 FILLER_0_32_77
*1115 FILLER_0_32_83
*1116 FILLER_0_32_85
*1117 FILLER_0_32_97
*1118 FILLER_0_33_105
*1119 FILLER_0_33_111
*1120 FILLER_0_33_113
*1121 FILLER_0_33_125
*1122 FILLER_0_33_137
*1123 FILLER_0_33_149
*1124 FILLER_0_33_15
*1125 FILLER_0_33_161
*1126 FILLER_0_33_167
*1127 FILLER_0_33_169
*1128 FILLER_0_33_181
*1129 FILLER_0_33_193
*1130 FILLER_0_33_201
*1131 FILLER_0_33_212
*1132 FILLER_0_33_225
*1133 FILLER_0_33_253
*1134 FILLER_0_33_266
*1135 FILLER_0_33_27
*1136 FILLER_0_33_270
*1137 FILLER_0_33_275
*1138 FILLER_0_33_279
*1139 FILLER_0_33_281
*1140 FILLER_0_33_293
*1141 FILLER_0_33_3
*1142 FILLER_0_33_301
*1143 FILLER_0_33_318
*1144 FILLER_0_33_326
*1145 FILLER_0_33_333
*1146 FILLER_0_33_337
*1147 FILLER_0_33_349
*1148 FILLER_0_33_39
*1149 FILLER_0_33_51
*1150 FILLER_0_33_55
*1151 FILLER_0_33_57
*1152 FILLER_0_33_69
*1153 FILLER_0_33_81
*1154 FILLER_0_33_93
*1155 FILLER_0_34_109
*1156 FILLER_0_34_121
*1157 FILLER_0_34_133
*1158 FILLER_0_34_139
*1159 FILLER_0_34_141
*1160 FILLER_0_34_15
*1161 FILLER_0_34_153
*1162 FILLER_0_34_165
*1163 FILLER_0_34_177
*1164 FILLER_0_34_189
*1165 FILLER_0_34_197
*1166 FILLER_0_34_220
*1167 FILLER_0_34_226
*1168 FILLER_0_34_266
*1169 FILLER_0_34_27
*1170 FILLER_0_34_286
*1171 FILLER_0_34_29
*1172 FILLER_0_34_292
*1173 FILLER_0_34_3
*1174 FILLER_0_34_325
*1175 FILLER_0_34_342
*1176 FILLER_0_34_350
*1177 FILLER_0_34_41
*1178 FILLER_0_34_53
*1179 FILLER_0_34_65
*1180 FILLER_0_34_77
*1181 FILLER_0_34_83
*1182 FILLER_0_34_85
*1183 FILLER_0_34_97
*1184 FILLER_0_35_105
*1185 FILLER_0_35_111
*1186 FILLER_0_35_113
*1187 FILLER_0_35_125
*1188 FILLER_0_35_137
*1189 FILLER_0_35_149
*1190 FILLER_0_35_15
*1191 FILLER_0_35_161
*1192 FILLER_0_35_167
*1193 FILLER_0_35_169
*1194 FILLER_0_35_181
*1195 FILLER_0_35_185
*1196 FILLER_0_35_222
*1197 FILLER_0_35_225
*1198 FILLER_0_35_231
*1199 FILLER_0_35_239
*1200 FILLER_0_35_257
*1201 FILLER_0_35_27
*1202 FILLER_0_35_276
*1203 FILLER_0_35_281
*1204 FILLER_0_35_293
*1205 FILLER_0_35_3
*1206 FILLER_0_35_301
*1207 FILLER_0_35_312
*1208 FILLER_0_35_337
*1209 FILLER_0_35_349
*1210 FILLER_0_35_39
*1211 FILLER_0_35_51
*1212 FILLER_0_35_55
*1213 FILLER_0_35_57
*1214 FILLER_0_35_69
*1215 FILLER_0_35_81
*1216 FILLER_0_35_93
*1217 FILLER_0_36_109
*1218 FILLER_0_36_121
*1219 FILLER_0_36_133
*1220 FILLER_0_36_139
*1221 FILLER_0_36_141
*1222 FILLER_0_36_15
*1223 FILLER_0_36_153
*1224 FILLER_0_36_165
*1225 FILLER_0_36_245
*1226 FILLER_0_36_27
*1227 FILLER_0_36_283
*1228 FILLER_0_36_29
*1229 FILLER_0_36_295
*1230 FILLER_0_36_3
*1231 FILLER_0_36_346
*1232 FILLER_0_36_350
*1233 FILLER_0_36_41
*1234 FILLER_0_36_53
*1235 FILLER_0_36_65
*1236 FILLER_0_36_77
*1237 FILLER_0_36_83
*1238 FILLER_0_36_85
*1239 FILLER_0_36_97
*1240 FILLER_0_37_105
*1241 FILLER_0_37_111
*1242 FILLER_0_37_113
*1243 FILLER_0_37_125
*1244 FILLER_0_37_137
*1245 FILLER_0_37_149
*1246 FILLER_0_37_15
*1247 FILLER_0_37_161
*1248 FILLER_0_37_167
*1249 FILLER_0_37_169
*1250 FILLER_0_37_181
*1251 FILLER_0_37_218
*1252 FILLER_0_37_225
*1253 FILLER_0_37_237
*1254 FILLER_0_37_249
*1255 FILLER_0_37_27
*1256 FILLER_0_37_274
*1257 FILLER_0_37_297
*1258 FILLER_0_37_3
*1259 FILLER_0_37_334
*1260 FILLER_0_37_337
*1261 FILLER_0_37_346
*1262 FILLER_0_37_350
*1263 FILLER_0_37_39
*1264 FILLER_0_37_51
*1265 FILLER_0_37_55
*1266 FILLER_0_37_57
*1267 FILLER_0_37_69
*1268 FILLER_0_37_81
*1269 FILLER_0_37_93
*1270 FILLER_0_38_102
*1271 FILLER_0_38_106
*1272 FILLER_0_38_110
*1273 FILLER_0_38_113
*1274 FILLER_0_38_118
*1275 FILLER_0_38_122
*1276 FILLER_0_38_126
*1277 FILLER_0_38_130
*1278 FILLER_0_38_134
*1279 FILLER_0_38_14
*1280 FILLER_0_38_144
*1281 FILLER_0_38_150
*1282 FILLER_0_38_154
*1283 FILLER_0_38_158
*1284 FILLER_0_38_162
*1285 FILLER_0_38_166
*1286 FILLER_0_38_169
*1287 FILLER_0_38_174
*1288 FILLER_0_38_178
*1289 FILLER_0_38_18
*1290 FILLER_0_38_182
*1291 FILLER_0_38_186
*1292 FILLER_0_38_190
*1293 FILLER_0_38_195
*1294 FILLER_0_38_203
*1295 FILLER_0_38_22
*1296 FILLER_0_38_222
*1297 FILLER_0_38_225
*1298 FILLER_0_38_237
*1299 FILLER_0_38_249
*1300 FILLER_0_38_253
*1301 FILLER_0_38_259
*1302 FILLER_0_38_263
*1303 FILLER_0_38_276
*1304 FILLER_0_38_281
*1305 FILLER_0_38_293
*1306 FILLER_0_38_3
*1307 FILLER_0_38_309
*1308 FILLER_0_38_32
*1309 FILLER_0_38_320
*1310 FILLER_0_38_328
*1311 FILLER_0_38_337
*1312 FILLER_0_38_349
*1313 FILLER_0_38_38
*1314 FILLER_0_38_42
*1315 FILLER_0_38_46
*1316 FILLER_0_38_50
*1317 FILLER_0_38_54
*1318 FILLER_0_38_57
*1319 FILLER_0_38_62
*1320 FILLER_0_38_66
*1321 FILLER_0_38_70
*1322 FILLER_0_38_74
*1323 FILLER_0_38_78
*1324 FILLER_0_38_88
*1325 FILLER_0_38_94
*1326 FILLER_0_38_98
*1327 FILLER_0_3_105
*1328 FILLER_0_3_111
*1329 FILLER_0_3_113
*1330 FILLER_0_3_125
*1331 FILLER_0_3_137
*1332 FILLER_0_3_149
*1333 FILLER_0_3_15
*1334 FILLER_0_3_161
*1335 FILLER_0_3_167
*1336 FILLER_0_3_169
*1337 FILLER_0_3_181
*1338 FILLER_0_3_193
*1339 FILLER_0_3_205
*1340 FILLER_0_3_217
*1341 FILLER_0_3_223
*1342 FILLER_0_3_225
*1343 FILLER_0_3_237
*1344 FILLER_0_3_249
*1345 FILLER_0_3_261
*1346 FILLER_0_3_27
*1347 FILLER_0_3_273
*1348 FILLER_0_3_279
*1349 FILLER_0_3_281
*1350 FILLER_0_3_293
*1351 FILLER_0_3_3
*1352 FILLER_0_3_305
*1353 FILLER_0_3_317
*1354 FILLER_0_3_329
*1355 FILLER_0_3_335
*1356 FILLER_0_3_337
*1357 FILLER_0_3_349
*1358 FILLER_0_3_39
*1359 FILLER_0_3_51
*1360 FILLER_0_3_55
*1361 FILLER_0_3_57
*1362 FILLER_0_3_69
*1363 FILLER_0_3_81
*1364 FILLER_0_3_93
*1365 FILLER_0_4_109
*1366 FILLER_0_4_121
*1367 FILLER_0_4_133
*1368 FILLER_0_4_139
*1369 FILLER_0_4_141
*1370 FILLER_0_4_15
*1371 FILLER_0_4_153
*1372 FILLER_0_4_165
*1373 FILLER_0_4_177
*1374 FILLER_0_4_189
*1375 FILLER_0_4_195
*1376 FILLER_0_4_197
*1377 FILLER_0_4_209
*1378 FILLER_0_4_221
*1379 FILLER_0_4_233
*1380 FILLER_0_4_245
*1381 FILLER_0_4_251
*1382 FILLER_0_4_253
*1383 FILLER_0_4_265
*1384 FILLER_0_4_27
*1385 FILLER_0_4_277
*1386 FILLER_0_4_289
*1387 FILLER_0_4_29
*1388 FILLER_0_4_3
*1389 FILLER_0_4_301
*1390 FILLER_0_4_307
*1391 FILLER_0_4_309
*1392 FILLER_0_4_321
*1393 FILLER_0_4_333
*1394 FILLER_0_4_345
*1395 FILLER_0_4_41
*1396 FILLER_0_4_53
*1397 FILLER_0_4_65
*1398 FILLER_0_4_77
*1399 FILLER_0_4_83
*1400 FILLER_0_4_85
*1401 FILLER_0_4_97
*1402 FILLER_0_5_105
*1403 FILLER_0_5_111
*1404 FILLER_0_5_113
*1405 FILLER_0_5_125
*1406 FILLER_0_5_137
*1407 FILLER_0_5_149
*1408 FILLER_0_5_15
*1409 FILLER_0_5_161
*1410 FILLER_0_5_167
*1411 FILLER_0_5_169
*1412 FILLER_0_5_181
*1413 FILLER_0_5_193
*1414 FILLER_0_5_205
*1415 FILLER_0_5_217
*1416 FILLER_0_5_223
*1417 FILLER_0_5_225
*1418 FILLER_0_5_237
*1419 FILLER_0_5_249
*1420 FILLER_0_5_261
*1421 FILLER_0_5_27
*1422 FILLER_0_5_273
*1423 FILLER_0_5_279
*1424 FILLER_0_5_281
*1425 FILLER_0_5_293
*1426 FILLER_0_5_3
*1427 FILLER_0_5_305
*1428 FILLER_0_5_317
*1429 FILLER_0_5_329
*1430 FILLER_0_5_335
*1431 FILLER_0_5_337
*1432 FILLER_0_5_349
*1433 FILLER_0_5_39
*1434 FILLER_0_5_51
*1435 FILLER_0_5_55
*1436 FILLER_0_5_57
*1437 FILLER_0_5_69
*1438 FILLER_0_5_81
*1439 FILLER_0_5_93
*1440 FILLER_0_6_109
*1441 FILLER_0_6_121
*1442 FILLER_0_6_133
*1443 FILLER_0_6_139
*1444 FILLER_0_6_141
*1445 FILLER_0_6_15
*1446 FILLER_0_6_153
*1447 FILLER_0_6_165
*1448 FILLER_0_6_177
*1449 FILLER_0_6_189
*1450 FILLER_0_6_195
*1451 FILLER_0_6_197
*1452 FILLER_0_6_209
*1453 FILLER_0_6_221
*1454 FILLER_0_6_233
*1455 FILLER_0_6_245
*1456 FILLER_0_6_251
*1457 FILLER_0_6_253
*1458 FILLER_0_6_265
*1459 FILLER_0_6_27
*1460 FILLER_0_6_277
*1461 FILLER_0_6_289
*1462 FILLER_0_6_29
*1463 FILLER_0_6_3
*1464 FILLER_0_6_301
*1465 FILLER_0_6_307
*1466 FILLER_0_6_309
*1467 FILLER_0_6_321
*1468 FILLER_0_6_333
*1469 FILLER_0_6_345
*1470 FILLER_0_6_41
*1471 FILLER_0_6_53
*1472 FILLER_0_6_65
*1473 FILLER_0_6_77
*1474 FILLER_0_6_83
*1475 FILLER_0_6_85
*1476 FILLER_0_6_97
*1477 FILLER_0_7_105
*1478 FILLER_0_7_111
*1479 FILLER_0_7_113
*1480 FILLER_0_7_125
*1481 FILLER_0_7_137
*1482 FILLER_0_7_149
*1483 FILLER_0_7_15
*1484 FILLER_0_7_161
*1485 FILLER_0_7_167
*1486 FILLER_0_7_169
*1487 FILLER_0_7_181
*1488 FILLER_0_7_193
*1489 FILLER_0_7_205