*SPEF "ieee 1481-1999"
*DESIGN "tt_um_onehot"
*DATE "11:11:11 Fri 11 11, 1111"
*VENDOR "OpenRCX"
*PROGRAM "Parallel Extraction"
*VERSION "1.0"
*DESIGN_FLOW "NAME_SCOPE LOCAL" "PIN_CAP NONE"
*DIVIDER /
*DELIMITER :
*BUS_DELIMITER []
*T_UNIT 1 NS
*C_UNIT 1 PF
*R_UNIT 1 OHM
*L_UNIT 1 HENRY

*NAME_MAP
*3 clk
*4 ena
*5 rst_n
*6 ui_in[0]
*7 ui_in[1]
*8 ui_in[2]
*9 ui_in[3]
*10 ui_in[4]
*11 ui_in[5]
*12 ui_in[6]
*13 ui_in[7]
*14 uio_in[0]
*15 uio_in[1]
*16 uio_in[2]
*17 uio_in[3]
*18 uio_in[4]
*19 uio_in[5]
*20 uio_in[6]
*21 uio_in[7]
*22 net4
*23 net5
*24 net6
*25 net7
*26 net8
*27 net9
*28 net10
*29 net11
*30 net12
*31 net13
*32 net14
*33 net15
*34 net16
*35 net17
*36 net18
*37 net19
*38 uo_out[0]
*39 uo_out[1]
*40 uo_out[2]
*41 uo_out[3]
*42 uo_out[4]
*43 uo_out[5]
*44 uo_out[6]
*45 uo_out[7]
*46 _00_
*47 _01_
*48 _02_
*49 _03_
*50 net1
*51 net2
*52 net3
*53 FILLER_0_0_109
*54 FILLER_0_0_113
*55 FILLER_0_0_125
*56 FILLER_0_0_137
*57 FILLER_0_0_141
*58 FILLER_0_0_15
*59 FILLER_0_0_153
*60 FILLER_0_0_165
*61 FILLER_0_0_169
*62 FILLER_0_0_181
*63 FILLER_0_0_193
*64 FILLER_0_0_197
*65 FILLER_0_0_209
*66 FILLER_0_0_221
*67 FILLER_0_0_225
*68 FILLER_0_0_237
*69 FILLER_0_0_249
*70 FILLER_0_0_253
*71 FILLER_0_0_265
*72 FILLER_0_0_27
*73 FILLER_0_0_277
*74 FILLER_0_0_281
*75 FILLER_0_0_29
*76 FILLER_0_0_293
*77 FILLER_0_0_3
*78 FILLER_0_0_305
*79 FILLER_0_0_309
*80 FILLER_0_0_321
*81 FILLER_0_0_333
*82 FILLER_0_0_337
*83 FILLER_0_0_349
*84 FILLER_0_0_41
*85 FILLER_0_0_53
*86 FILLER_0_0_57
*87 FILLER_0_0_69
*88 FILLER_0_0_81
*89 FILLER_0_0_85
*90 FILLER_0_0_97
*91 FILLER_0_10_109
*92 FILLER_0_10_121
*93 FILLER_0_10_133
*94 FILLER_0_10_139
*95 FILLER_0_10_141
*96 FILLER_0_10_15
*97 FILLER_0_10_153
*98 FILLER_0_10_165
*99 FILLER_0_10_177
*100 FILLER_0_10_189
*101 FILLER_0_10_195
*102 FILLER_0_10_197
*103 FILLER_0_10_209
*104 FILLER_0_10_221
*105 FILLER_0_10_233
*106 FILLER_0_10_245
*107 FILLER_0_10_251
*108 FILLER_0_10_253
*109 FILLER_0_10_265
*110 FILLER_0_10_27
*111 FILLER_0_10_277
*112 FILLER_0_10_289
*113 FILLER_0_10_29
*114 FILLER_0_10_3
*115 FILLER_0_10_301
*116 FILLER_0_10_307
*117 FILLER_0_10_309
*118 FILLER_0_10_321
*119 FILLER_0_10_333
*120 FILLER_0_10_345
*121 FILLER_0_10_41
*122 FILLER_0_10_53
*123 FILLER_0_10_65
*124 FILLER_0_10_77
*125 FILLER_0_10_83
*126 FILLER_0_10_85
*127 FILLER_0_10_97
*128 FILLER_0_11_105
*129 FILLER_0_11_111
*130 FILLER_0_11_113
*131 FILLER_0_11_125
*132 FILLER_0_11_137
*133 FILLER_0_11_149
*134 FILLER_0_11_15
*135 FILLER_0_11_161
*136 FILLER_0_11_167
*137 FILLER_0_11_169
*138 FILLER_0_11_181
*139 FILLER_0_11_193
*140 FILLER_0_11_205
*141 FILLER_0_11_217
*142 FILLER_0_11_223
*143 FILLER_0_11_225
*144 FILLER_0_11_237
*145 FILLER_0_11_249
*146 FILLER_0_11_261
*147 FILLER_0_11_27
*148 FILLER_0_11_273
*149 FILLER_0_11_279
*150 FILLER_0_11_281
*151 FILLER_0_11_293
*152 FILLER_0_11_3
*153 FILLER_0_11_305
*154 FILLER_0_11_317
*155 FILLER_0_11_329
*156 FILLER_0_11_335
*157 FILLER_0_11_337
*158 FILLER_0_11_349
*159 FILLER_0_11_39
*160 FILLER_0_11_51
*161 FILLER_0_11_55
*162 FILLER_0_11_57
*163 FILLER_0_11_69
*164 FILLER_0_11_81
*165 FILLER_0_11_93
*166 FILLER_0_12_109
*167 FILLER_0_12_121
*168 FILLER_0_12_133
*169 FILLER_0_12_139
*170 FILLER_0_12_141
*171 FILLER_0_12_15
*172 FILLER_0_12_153
*173 FILLER_0_12_165
*174 FILLER_0_12_177
*175 FILLER_0_12_189
*176 FILLER_0_12_195
*177 FILLER_0_12_197
*178 FILLER_0_12_209
*179 FILLER_0_12_221
*180 FILLER_0_12_233
*181 FILLER_0_12_245
*182 FILLER_0_12_251
*183 FILLER_0_12_253
*184 FILLER_0_12_265
*185 FILLER_0_12_27
*186 FILLER_0_12_277
*187 FILLER_0_12_289
*188 FILLER_0_12_29
*189 FILLER_0_12_3
*190 FILLER_0_12_301
*191 FILLER_0_12_307
*192 FILLER_0_12_309
*193 FILLER_0_12_321
*194 FILLER_0_12_333
*195 FILLER_0_12_345
*196 FILLER_0_12_41
*197 FILLER_0_12_53
*198 FILLER_0_12_65
*199 FILLER_0_12_77
*200 FILLER_0_12_83
*201 FILLER_0_12_85
*202 FILLER_0_12_97
*203 FILLER_0_13_105
*204 FILLER_0_13_111
*205 FILLER_0_13_113
*206 FILLER_0_13_125
*207 FILLER_0_13_137
*208 FILLER_0_13_149
*209 FILLER_0_13_15
*210 FILLER_0_13_161
*211 FILLER_0_13_167
*212 FILLER_0_13_169
*213 FILLER_0_13_181
*214 FILLER_0_13_193
*215 FILLER_0_13_205
*216 FILLER_0_13_217
*217 FILLER_0_13_223
*218 FILLER_0_13_225
*219 FILLER_0_13_237
*220 FILLER_0_13_249
*221 FILLER_0_13_261
*222 FILLER_0_13_27
*223 FILLER_0_13_273
*224 FILLER_0_13_279
*225 FILLER_0_13_281
*226 FILLER_0_13_293
*227 FILLER_0_13_3
*228 FILLER_0_13_305
*229 FILLER_0_13_317
*230 FILLER_0_13_329
*231 FILLER_0_13_335
*232 FILLER_0_13_337
*233 FILLER_0_13_349
*234 FILLER_0_13_39
*235 FILLER_0_13_51
*236 FILLER_0_13_55
*237 FILLER_0_13_57
*238 FILLER_0_13_69
*239 FILLER_0_13_81
*240 FILLER_0_13_93
*241 FILLER_0_14_109
*242 FILLER_0_14_121
*243 FILLER_0_14_133
*244 FILLER_0_14_139
*245 FILLER_0_14_141
*246 FILLER_0_14_15
*247 FILLER_0_14_153
*248 FILLER_0_14_165
*249 FILLER_0_14_177
*250 FILLER_0_14_189
*251 FILLER_0_14_195
*252 FILLER_0_14_197
*253 FILLER_0_14_209
*254 FILLER_0_14_221
*255 FILLER_0_14_233
*256 FILLER_0_14_245
*257 FILLER_0_14_251
*258 FILLER_0_14_253
*259 FILLER_0_14_265
*260 FILLER_0_14_27
*261 FILLER_0_14_277
*262 FILLER_0_14_289
*263 FILLER_0_14_29
*264 FILLER_0_14_3
*265 FILLER_0_14_301
*266 FILLER_0_14_307
*267 FILLER_0_14_309
*268 FILLER_0_14_321
*269 FILLER_0_14_333
*270 FILLER_0_14_345
*271 FILLER_0_14_41
*272 FILLER_0_14_53
*273 FILLER_0_14_65
*274 FILLER_0_14_77
*275 FILLER_0_14_83
*276 FILLER_0_14_85
*277 FILLER_0_14_97
*278 FILLER_0_15_105
*279 FILLER_0_15_111
*280 FILLER_0_15_113
*281 FILLER_0_15_125
*282 FILLER_0_15_137
*283 FILLER_0_15_149
*284 FILLER_0_15_15
*285 FILLER_0_15_161
*286 FILLER_0_15_167
*287 FILLER_0_15_169
*288 FILLER_0_15_181
*289 FILLER_0_15_193
*290 FILLER_0_15_205
*291 FILLER_0_15_217
*292 FILLER_0_15_223
*293 FILLER_0_15_225
*294 FILLER_0_15_237
*295 FILLER_0_15_249
*296 FILLER_0_15_261
*297 FILLER_0_15_27
*298 FILLER_0_15_273
*299 FILLER_0_15_279
*300 FILLER_0_15_281
*301 FILLER_0_15_293
*302 FILLER_0_15_3
*303 FILLER_0_15_305
*304 FILLER_0_15_317
*305 FILLER_0_15_329
*306 FILLER_0_15_335
*307 FILLER_0_15_337
*308 FILLER_0_15_349
*309 FILLER_0_15_39
*310 FILLER_0_15_51
*311 FILLER_0_15_55
*312 FILLER_0_15_57
*313 FILLER_0_15_69
*314 FILLER_0_15_81
*315 FILLER_0_15_93
*316 FILLER_0_16_109
*317 FILLER_0_16_121
*318 FILLER_0_16_133
*319 FILLER_0_16_139
*320 FILLER_0_16_141
*321 FILLER_0_16_15
*322 FILLER_0_16_153
*323 FILLER_0_16_165
*324 FILLER_0_16_177
*325 FILLER_0_16_189
*326 FILLER_0_16_195
*327 FILLER_0_16_197
*328 FILLER_0_16_209
*329 FILLER_0_16_221
*330 FILLER_0_16_233
*331 FILLER_0_16_245
*332 FILLER_0_16_251
*333 FILLER_0_16_253
*334 FILLER_0_16_265
*335 FILLER_0_16_27
*336 FILLER_0_16_277
*337 FILLER_0_16_289
*338 FILLER_0_16_29
*339 FILLER_0_16_3
*340 FILLER_0_16_301
*341 FILLER_0_16_307
*342 FILLER_0_16_309
*343 FILLER_0_16_321
*344 FILLER_0_16_333
*345 FILLER_0_16_345
*346 FILLER_0_16_41
*347 FILLER_0_16_53
*348 FILLER_0_16_65
*349 FILLER_0_16_77
*350 FILLER_0_16_83
*351 FILLER_0_16_85
*352 FILLER_0_16_97
*353 FILLER_0_17_105
*354 FILLER_0_17_111
*355 FILLER_0_17_113
*356 FILLER_0_17_125
*357 FILLER_0_17_137
*358 FILLER_0_17_149
*359 FILLER_0_17_15
*360 FILLER_0_17_161
*361 FILLER_0_17_167
*362 FILLER_0_17_169
*363 FILLER_0_17_181
*364 FILLER_0_17_193
*365 FILLER_0_17_205
*366 FILLER_0_17_217
*367 FILLER_0_17_223
*368 FILLER_0_17_225
*369 FILLER_0_17_237
*370 FILLER_0_17_249
*371 FILLER_0_17_261
*372 FILLER_0_17_27
*373 FILLER_0_17_273
*374 FILLER_0_17_279
*375 FILLER_0_17_281
*376 FILLER_0_17_293
*377 FILLER_0_17_3
*378 FILLER_0_17_305
*379 FILLER_0_17_317
*380 FILLER_0_17_329
*381 FILLER_0_17_335
*382 FILLER_0_17_337
*383 FILLER_0_17_349
*384 FILLER_0_17_39
*385 FILLER_0_17_51
*386 FILLER_0_17_55
*387 FILLER_0_17_57
*388 FILLER_0_17_69
*389 FILLER_0_17_81
*390 FILLER_0_17_93
*391 FILLER_0_18_109
*392 FILLER_0_18_121
*393 FILLER_0_18_133
*394 FILLER_0_18_139
*395 FILLER_0_18_141
*396 FILLER_0_18_15
*397 FILLER_0_18_153
*398 FILLER_0_18_165
*399 FILLER_0_18_177
*400 FILLER_0_18_189
*401 FILLER_0_18_195
*402 FILLER_0_18_197
*403 FILLER_0_18_209
*404 FILLER_0_18_221
*405 FILLER_0_18_233
*406 FILLER_0_18_245
*407 FILLER_0_18_251
*408 FILLER_0_18_253
*409 FILLER_0_18_265
*410 FILLER_0_18_27
*411 FILLER_0_18_277
*412 FILLER_0_18_289
*413 FILLER_0_18_29
*414 FILLER_0_18_3
*415 FILLER_0_18_301
*416 FILLER_0_18_307
*417 FILLER_0_18_309
*418 FILLER_0_18_321
*419 FILLER_0_18_333
*420 FILLER_0_18_345
*421 FILLER_0_18_41
*422 FILLER_0_18_53
*423 FILLER_0_18_65
*424 FILLER_0_18_77
*425 FILLER_0_18_83
*426 FILLER_0_18_85
*427 FILLER_0_18_97
*428 FILLER_0_19_105
*429 FILLER_0_19_111
*430 FILLER_0_19_113
*431 FILLER_0_19_125
*432 FILLER_0_19_137
*433 FILLER_0_19_149
*434 FILLER_0_19_15
*435 FILLER_0_19_161
*436 FILLER_0_19_167
*437 FILLER_0_19_169
*438 FILLER_0_19_181
*439 FILLER_0_19_193
*440 FILLER_0_19_205
*441 FILLER_0_19_217
*442 FILLER_0_19_223
*443 FILLER_0_19_225
*444 FILLER_0_19_237
*445 FILLER_0_19_249
*446 FILLER_0_19_261
*447 FILLER_0_19_27
*448 FILLER_0_19_273
*449 FILLER_0_19_279
*450 FILLER_0_19_281
*451 FILLER_0_19_293
*452 FILLER_0_19_3
*453 FILLER_0_19_305
*454 FILLER_0_19_317
*455 FILLER_0_19_329
*456 FILLER_0_19_335
*457 FILLER_0_19_337
*458 FILLER_0_19_349
*459 FILLER_0_19_39
*460 FILLER_0_19_51
*461 FILLER_0_19_55
*462 FILLER_0_19_57
*463 FILLER_0_19_69
*464 FILLER_0_19_81
*465 FILLER_0_19_93
*466 FILLER_0_1_105
*467 FILLER_0_1_111
*468 FILLER_0_1_113
*469 FILLER_0_1_125
*470 FILLER_0_1_137
*471 FILLER_0_1_149
*472 FILLER_0_1_15
*473 FILLER_0_1_161
*474 FILLER_0_1_167
*475 FILLER_0_1_169
*476 FILLER_0_1_181
*477 FILLER_0_1_193
*478 FILLER_0_1_205
*479 FILLER_0_1_217
*480 FILLER_0_1_223
*481 FILLER_0_1_225
*482 FILLER_0_1_237
*483 FILLER_0_1_249
*484 FILLER_0_1_261
*485 FILLER_0_1_27
*486 FILLER_0_1_273
*487 FILLER_0_1_279
*488 FILLER_0_1_281
*489 FILLER_0_1_293
*490 FILLER_0_1_3
*491 FILLER_0_1_305
*492 FILLER_0_1_317
*493 FILLER_0_1_329
*494 FILLER_0_1_335
*495 FILLER_0_1_337
*496 FILLER_0_1_349
*497 FILLER_0_1_39
*498 FILLER_0_1_51
*499 FILLER_0_1_55
*500 FILLER_0_1_57
*501 FILLER_0_1_69
*502 FILLER_0_1_81
*503 FILLER_0_1_93
*504 FILLER_0_20_109
*505 FILLER_0_20_121
*506 FILLER_0_20_133
*507 FILLER_0_20_139
*508 FILLER_0_20_141
*509 FILLER_0_20_15
*510 FILLER_0_20_153
*511 FILLER_0_20_165
*512 FILLER_0_20_177
*513 FILLER_0_20_189
*514 FILLER_0_20_195
*515 FILLER_0_20_197
*516 FILLER_0_20_209
*517 FILLER_0_20_221
*518 FILLER_0_20_233
*519 FILLER_0_20_245
*520 FILLER_0_20_251
*521 FILLER_0_20_253
*522 FILLER_0_20_265
*523 FILLER_0_20_27
*524 FILLER_0_20_277
*525 FILLER_0_20_289
*526 FILLER_0_20_29
*527 FILLER_0_20_3
*528 FILLER_0_20_301
*529 FILLER_0_20_307
*530 FILLER_0_20_309
*531 FILLER_0_20_321
*532 FILLER_0_20_333
*533 FILLER_0_20_345
*534 FILLER_0_20_41
*535 FILLER_0_20_53
*536 FILLER_0_20_65
*537 FILLER_0_20_77
*538 FILLER_0_20_83
*539 FILLER_0_20_85
*540 FILLER_0_20_97
*541 FILLER_0_21_105
*542 FILLER_0_21_111
*543 FILLER_0_21_113
*544 FILLER_0_21_125
*545 FILLER_0_21_137
*546 FILLER_0_21_149
*547 FILLER_0_21_15
*548 FILLER_0_21_161
*549 FILLER_0_21_167
*550 FILLER_0_21_169
*551 FILLER_0_21_181
*552 FILLER_0_21_193
*553 FILLER_0_21_205
*554 FILLER_0_21_217
*555 FILLER_0_21_223
*556 FILLER_0_21_225
*557 FILLER_0_21_237
*558 FILLER_0_21_249
*559 FILLER_0_21_261
*560 FILLER_0_21_27
*561 FILLER_0_21_273
*562 FILLER_0_21_279
*563 FILLER_0_21_281
*564 FILLER_0_21_293
*565 FILLER_0_21_3
*566 FILLER_0_21_305
*567 FILLER_0_21_317
*568 FILLER_0_21_329
*569 FILLER_0_21_335
*570 FILLER_0_21_337
*571 FILLER_0_21_349
*572 FILLER_0_21_39
*573 FILLER_0_21_51
*574 FILLER_0_21_55
*575 FILLER_0_21_57
*576 FILLER_0_21_69
*577 FILLER_0_21_81
*578 FILLER_0_21_93
*579 FILLER_0_22_109
*580 FILLER_0_22_121
*581 FILLER_0_22_133
*582 FILLER_0_22_139
*583 FILLER_0_22_141
*584 FILLER_0_22_15
*585 FILLER_0_22_153
*586 FILLER_0_22_165
*587 FILLER_0_22_177
*588 FILLER_0_22_189
*589 FILLER_0_22_195
*590 FILLER_0_22_197
*591 FILLER_0_22_209
*592 FILLER_0_22_221
*593 FILLER_0_22_233
*594 FILLER_0_22_245
*595 FILLER_0_22_251
*596 FILLER_0_22_253
*597 FILLER_0_22_265
*598 FILLER_0_22_27
*599 FILLER_0_22_277
*600 FILLER_0_22_289
*601 FILLER_0_22_29
*602 FILLER_0_22_3
*603 FILLER_0_22_301
*604 FILLER_0_22_307
*605 FILLER_0_22_309
*606 FILLER_0_22_321
*607 FILLER_0_22_333
*608 FILLER_0_22_345
*609 FILLER_0_22_41
*610 FILLER_0_22_53
*611 FILLER_0_22_65
*612 FILLER_0_22_77
*613 FILLER_0_22_83
*614 FILLER_0_22_85
*615 FILLER_0_22_97
*616 FILLER_0_23_105
*617 FILLER_0_23_111
*618 FILLER_0_23_113
*619 FILLER_0_23_125
*620 FILLER_0_23_137
*621 FILLER_0_23_149
*622 FILLER_0_23_15
*623 FILLER_0_23_161
*624 FILLER_0_23_167
*625 FILLER_0_23_169
*626 FILLER_0_23_181
*627 FILLER_0_23_193
*628 FILLER_0_23_205
*629 FILLER_0_23_217
*630 FILLER_0_23_223
*631 FILLER_0_23_225
*632 FILLER_0_23_237
*633 FILLER_0_23_249
*634 FILLER_0_23_261
*635 FILLER_0_23_27
*636 FILLER_0_23_273
*637 FILLER_0_23_279
*638 FILLER_0_23_281
*639 FILLER_0_23_293
*640 FILLER_0_23_3
*641 FILLER_0_23_305
*642 FILLER_0_23_317
*643 FILLER_0_23_329
*644 FILLER_0_23_335
*645 FILLER_0_23_337
*646 FILLER_0_23_349
*647 FILLER_0_23_39
*648 FILLER_0_23_51
*649 FILLER_0_23_55
*650 FILLER_0_23_57
*651 FILLER_0_23_69
*652 FILLER_0_23_81
*653 FILLER_0_23_93
*654 FILLER_0_24_109
*655 FILLER_0_24_121
*656 FILLER_0_24_133
*657 FILLER_0_24_139
*658 FILLER_0_24_141
*659 FILLER_0_24_15
*660 FILLER_0_24_153
*661 FILLER_0_24_165
*662 FILLER_0_24_177
*663 FILLER_0_24_189
*664 FILLER_0_24_195
*665 FILLER_0_24_197
*666 FILLER_0_24_209
*667 FILLER_0_24_221
*668 FILLER_0_24_233
*669 FILLER_0_24_245
*670 FILLER_0_24_251
*671 FILLER_0_24_253
*672 FILLER_0_24_265
*673 FILLER_0_24_27
*674 FILLER_0_24_277
*675 FILLER_0_24_289
*676 FILLER_0_24_29
*677 FILLER_0_24_3
*678 FILLER_0_24_301
*679 FILLER_0_24_307
*680 FILLER_0_24_309
*681 FILLER_0_24_321
*682 FILLER_0_24_333
*683 FILLER_0_24_345
*684 FILLER_0_24_41
*685 FILLER_0_24_53
*686 FILLER_0_24_65
*687 FILLER_0_24_77
*688 FILLER_0_24_83
*689 FILLER_0_24_85
*690 FILLER_0_24_97
*691 FILLER_0_25_105
*692 FILLER_0_25_111
*693 FILLER_0_25_113
*694 FILLER_0_25_125
*695 FILLER_0_25_137
*696 FILLER_0_25_149
*697 FILLER_0_25_15
*698 FILLER_0_25_161
*699 FILLER_0_25_167
*700 FILLER_0_25_169
*701 FILLER_0_25_181
*702 FILLER_0_25_193
*703 FILLER_0_25_205
*704 FILLER_0_25_217
*705 FILLER_0_25_223
*706 FILLER_0_25_225
*707 FILLER_0_25_237
*708 FILLER_0_25_249
*709 FILLER_0_25_261
*710 FILLER_0_25_27
*711 FILLER_0_25_273
*712 FILLER_0_25_279
*713 FILLER_0_25_281
*714 FILLER_0_25_293
*715 FILLER_0_25_3
*716 FILLER_0_25_305
*717 FILLER_0_25_317
*718 FILLER_0_25_329
*719 FILLER_0_25_335
*720 FILLER_0_25_337
*721 FILLER_0_25_349
*722 FILLER_0_25_39
*723 FILLER_0_25_51
*724 FILLER_0_25_55
*725 FILLER_0_25_57
*726 FILLER_0_25_69
*727 FILLER_0_25_81
*728 FILLER_0_25_93
*729 FILLER_0_26_109
*730 FILLER_0_26_121
*731 FILLER_0_26_133
*732 FILLER_0_26_139
*733 FILLER_0_26_141
*734 FILLER_0_26_15
*735 FILLER_0_26_153
*736 FILLER_0_26_165
*737 FILLER_0_26_177
*738 FILLER_0_26_189
*739 FILLER_0_26_195
*740 FILLER_0_26_197
*741 FILLER_0_26_209
*742 FILLER_0_26_221
*743 FILLER_0_26_233
*744 FILLER_0_26_245
*745 FILLER_0_26_251
*746 FILLER_0_26_253
*747 FILLER_0_26_265
*748 FILLER_0_26_27
*749 FILLER_0_26_277
*750 FILLER_0_26_289
*751 FILLER_0_26_29
*752 FILLER_0_26_3
*753 FILLER_0_26_301
*754 FILLER_0_26_307
*755 FILLER_0_26_309
*756 FILLER_0_26_321
*757 FILLER_0_26_333
*758 FILLER_0_26_345
*759 FILLER_0_26_41
*760 FILLER_0_26_53
*761 FILLER_0_26_65
*762 FILLER_0_26_77
*763 FILLER_0_26_83
*764 FILLER_0_26_85
*765 FILLER_0_26_97
*766 FILLER_0_27_105
*767 FILLER_0_27_111
*768 FILLER_0_27_113
*769 FILLER_0_27_125
*770 FILLER_0_27_137
*771 FILLER_0_27_149
*772 FILLER_0_27_15
*773 FILLER_0_27_161
*774 FILLER_0_27_167
*775 FILLER_0_27_169
*776 FILLER_0_27_181
*777 FILLER_0_27_193
*778 FILLER_0_27_205
*779 FILLER_0_27_217
*780 FILLER_0_27_223
*781 FILLER_0_27_225
*782 FILLER_0_27_237
*783 FILLER_0_27_249
*784 FILLER_0_27_261
*785 FILLER_0_27_27
*786 FILLER_0_27_273
*787 FILLER_0_27_279
*788 FILLER_0_27_281
*789 FILLER_0_27_293
*790 FILLER_0_27_3
*791 FILLER_0_27_305
*792 FILLER_0_27_317
*793 FILLER_0_27_329
*794 FILLER_0_27_335
*795 FILLER_0_27_337
*796 FILLER_0_27_349
*797 FILLER_0_27_39
*798 FILLER_0_27_51
*799 FILLER_0_27_55
*800 FILLER_0_27_57
*801 FILLER_0_27_69
*802 FILLER_0_27_81
*803 FILLER_0_27_93
*804 FILLER_0_28_109
*805 FILLER_0_28_121
*806 FILLER_0_28_133
*807 FILLER_0_28_139
*808 FILLER_0_28_141
*809 FILLER_0_28_15
*810 FILLER_0_28_153
*811 FILLER_0_28_165
*812 FILLER_0_28_177
*813 FILLER_0_28_189
*814 FILLER_0_28_195
*815 FILLER_0_28_197
*816 FILLER_0_28_209
*817 FILLER_0_28_221
*818 FILLER_0_28_233
*819 FILLER_0_28_245
*820 FILLER_0_28_251
*821 FILLER_0_28_253
*822 FILLER_0_28_265
*823 FILLER_0_28_27
*824 FILLER_0_28_277
*825 FILLER_0_28_289
*826 FILLER_0_28_29
*827 FILLER_0_28_3
*828 FILLER_0_28_301
*829 FILLER_0_28_307
*830 FILLER_0_28_309
*831 FILLER_0_28_321
*832 FILLER_0_28_333
*833 FILLER_0_28_345
*834 FILLER_0_28_41
*835 FILLER_0_28_53
*836 FILLER_0_28_65
*837 FILLER_0_28_77
*838 FILLER_0_28_83
*839 FILLER_0_28_85
*840 FILLER_0_28_97
*841 FILLER_0_29_105
*842 FILLER_0_29_111
*843 FILLER_0_29_113
*844 FILLER_0_29_125
*845 FILLER_0_29_137
*846 FILLER_0_29_149
*847 FILLER_0_29_15
*848 FILLER_0_29_161
*849 FILLER_0_29_167
*850 FILLER_0_29_169
*851 FILLER_0_29_181
*852 FILLER_0_29_193
*853 FILLER_0_29_205
*854 FILLER_0_29_217
*855 FILLER_0_29_223
*856 FILLER_0_29_225
*857 FILLER_0_29_237
*858 FILLER_0_29_249
*859 FILLER_0_29_261
*860 FILLER_0_29_27
*861 FILLER_0_29_273
*862 FILLER_0_29_279
*863 FILLER_0_29_281
*864 FILLER_0_29_293
*865 FILLER_0_29_3
*866 FILLER_0_29_305
*867 FILLER_0_29_317
*868 FILLER_0_29_329
*869 FILLER_0_29_335
*870 FILLER_0_29_337
*871 FILLER_0_29_349
*872 FILLER_0_29_39
*873 FILLER_0_29_51
*874 FILLER_0_29_55
*875 FILLER_0_29_57
*876 FILLER_0_29_69
*877 FILLER_0_29_81
*878 FILLER_0_29_93
*879 FILLER_0_2_109
*880 FILLER_0_2_121
*881 FILLER_0_2_133
*882 FILLER_0_2_139
*883 FILLER_0_2_141
*884 FILLER_0_2_15
*885 FILLER_0_2_153
*886 FILLER_0_2_165
*887 FILLER_0_2_177
*888 FILLER_0_2_189
*889 FILLER_0_2_195
*890 FILLER_0_2_197
*891 FILLER_0_2_209
*892 FILLER_0_2_221
*893 FILLER_0_2_233
*894 FILLER_0_2_245
*895 FILLER_0_2_251
*896 FILLER_0_2_253
*897 FILLER_0_2_265
*898 FILLER_0_2_27
*899 FILLER_0_2_277
*900 FILLER_0_2_289
*901 FILLER_0_2_29
*902 FILLER_0_2_3
*903 FILLER_0_2_301
*904 FILLER_0_2_307
*905 FILLER_0_2_309
*906 FILLER_0_2_321
*907 FILLER_0_2_333
*908 FILLER_0_2_345
*909 FILLER_0_2_41
*910 FILLER_0_2_53
*911 FILLER_0_2_65
*912 FILLER_0_2_77
*913 FILLER_0_2_83
*914 FILLER_0_2_85
*915 FILLER_0_2_97
*916 FILLER_0_30_109
*917 FILLER_0_30_121
*918 FILLER_0_30_133
*919 FILLER_0_30_139
*920 FILLER_0_30_141
*921 FILLER_0_30_15
*922 FILLER_0_30_153
*923 FILLER_0_30_165
*924 FILLER_0_30_177
*925 FILLER_0_30_189
*926 FILLER_0_30_195
*927 FILLER_0_30_197
*928 FILLER_0_30_209
*929 FILLER_0_30_221
*930 FILLER_0_30_233
*931 FILLER_0_30_245
*932 FILLER_0_30_251
*933 FILLER_0_30_253
*934 FILLER_0_30_265
*935 FILLER_0_30_27
*936 FILLER_0_30_277
*937 FILLER_0_30_289
*938 FILLER_0_30_29
*939 FILLER_0_30_3
*940 FILLER_0_30_301
*941 FILLER_0_30_307
*942 FILLER_0_30_309
*943 FILLER_0_30_321
*944 FILLER_0_30_333
*945 FILLER_0_30_345
*946 FILLER_0_30_41
*947 FILLER_0_30_53
*948 FILLER_0_30_65
*949 FILLER_0_30_77
*950 FILLER_0_30_83
*951 FILLER_0_30_85
*952 FILLER_0_30_97
*953 FILLER_0_31_105
*954 FILLER_0_31_111
*955 FILLER_0_31_113
*956 FILLER_0_31_125
*957 FILLER_0_31_137
*958 FILLER_0_31_149
*959 FILLER_0_31_15
*960 FILLER_0_31_161
*961 FILLER_0_31_167
*962 FILLER_0_31_169
*963 FILLER_0_31_181
*964 FILLER_0_31_193
*965 FILLER_0_31_205
*966 FILLER_0_31_217
*967 FILLER_0_31_223
*968 FILLER_0_31_225
*969 FILLER_0_31_237
*970 FILLER_0_31_249
*971 FILLER_0_31_261
*972 FILLER_0_31_27
*973 FILLER_0_31_273
*974 FILLER_0_31_279
*975 FILLER_0_31_281
*976 FILLER_0_31_293
*977 FILLER_0_31_3
*978 FILLER_0_31_305
*979 FILLER_0_31_317
*980 FILLER_0_31_329
*981 FILLER_0_31_335
*982 FILLER_0_31_337
*983 FILLER_0_31_349
*984 FILLER_0_31_39
*985 FILLER_0_31_51
*986 FILLER_0_31_55
*987 FILLER_0_31_57
*988 FILLER_0_31_69
*989 FILLER_0_31_81
*990 FILLER_0_31_93
*991 FILLER_0_32_109
*992 FILLER_0_32_121
*993 FILLER_0_32_133
*994 FILLER_0_32_139
*995 FILLER_0_32_141
*996 FILLER_0_32_15
*997 FILLER_0_32_153
*998 FILLER_0_32_165
*999 FILLER_0_32_177
*1000 FILLER_0_32_189
*1001 FILLER_0_32_195
*1002 FILLER_0_32_197
*1003 FILLER_0_32_209
*1004 FILLER_0_32_221
*1005 FILLER_0_32_233
*1006 FILLER_0_32_245
*1007 FILLER_0_32_251
*1008 FILLER_0_32_253
*1009 FILLER_0_32_265
*1010 FILLER_0_32_27
*1011 FILLER_0_32_277
*1012 FILLER_0_32_289
*1013 FILLER_0_32_29
*1014 FILLER_0_32_3
*1015 FILLER_0_32_301
*1016 FILLER_0_32_307
*1017 FILLER_0_32_309
*1018 FILLER_0_32_321
*1019 FILLER_0_32_333
*1020 FILLER_0_32_345
*1021 FILLER_0_32_41
*1022 FILLER_0_32_53
*1023 FILLER_0_32_65
*1024 FILLER_0_32_77
*1025 FILLER_0_32_83
*1026 FILLER_0_32_85
*1027 FILLER_0_32_97
*1028 FILLER_0_33_105
*1029 FILLER_0_33_111
*1030 FILLER_0_33_113
*1031 FILLER_0_33_125
*1032 FILLER_0_33_137
*1033 FILLER_0_33_149
*1034 FILLER_0_33_15
*1035 FILLER_0_33_161
*1036 FILLER_0_33_167
*1037 FILLER_0_33_169
*1038 FILLER_0_33_181
*1039 FILLER_0_33_193
*1040 FILLER_0_33_205
*1041 FILLER_0_33_217
*1042 FILLER_0_33_223
*1043 FILLER_0_33_225
*1044 FILLER_0_33_237
*1045 FILLER_0_33_249
*1046 FILLER_0_33_261
*1047 FILLER_0_33_27
*1048 FILLER_0_33_273
*1049 FILLER_0_33_279
*1050 FILLER_0_33_281
*1051 FILLER_0_33_293
*1052 FILLER_0_33_3
*1053 FILLER_0_33_305
*1054 FILLER_0_33_317
*1055 FILLER_0_33_329
*1056 FILLER_0_33_335
*1057 FILLER_0_33_337
*1058 FILLER_0_33_349
*1059 FILLER_0_33_39
*1060 FILLER_0_33_51
*1061 FILLER_0_33_55
*1062 FILLER_0_33_57
*1063 FILLER_0_33_69
*1064 FILLER_0_33_81
*1065 FILLER_0_33_93
*1066 FILLER_0_34_109
*1067 FILLER_0_34_121
*1068 FILLER_0_34_133
*1069 FILLER_0_34_139
*1070 FILLER_0_34_141
*1071 FILLER_0_34_15
*1072 FILLER_0_34_153
*1073 FILLER_0_34_165
*1074 FILLER_0_34_177
*1075 FILLER_0_34_189
*1076 FILLER_0_34_195
*1077 FILLER_0_34_197
*1078 FILLER_0_34_209
*1079 FILLER_0_34_221
*1080 FILLER_0_34_233
*1081 FILLER_0_34_245
*1082 FILLER_0_34_251
*1083 FILLER_0_34_253
*1084 FILLER_0_34_265
*1085 FILLER_0_34_27
*1086 FILLER_0_34_277
*1087 FILLER_0_34_289
*1088 FILLER_0_34_29
*1089 FILLER_0_34_3
*1090 FILLER_0_34_301
*1091 FILLER_0_34_307
*1092 FILLER_0_34_309
*1093 FILLER_0_34_321
*1094 FILLER_0_34_333
*1095 FILLER_0_34_345
*1096 FILLER_0_34_41
*1097 FILLER_0_34_53
*1098 FILLER_0_34_65
*1099 FILLER_0_34_77
*1100 FILLER_0_34_83
*1101 FILLER_0_34_85
*1102 FILLER_0_34_97
*1103 FILLER_0_35_105
*1104 FILLER_0_35_111
*1105 FILLER_0_35_113
*1106 FILLER_0_35_125
*1107 FILLER_0_35_137
*1108 FILLER_0_35_149
*1109 FILLER_0_35_15
*1110 FILLER_0_35_161
*1111 FILLER_0_35_167
*1112 FILLER_0_35_169
*1113 FILLER_0_35_181
*1114 FILLER_0_35_193
*1115 FILLER_0_35_205
*1116 FILLER_0_35_217
*1117 FILLER_0_35_223
*1118 FILLER_0_35_225
*1119 FILLER_0_35_237
*1120 FILLER_0_35_249
*1121 FILLER_0_35_261
*1122 FILLER_0_35_27
*1123 FILLER_0_35_273
*1124 FILLER_0_35_279
*1125 FILLER_0_35_281
*1126 FILLER_0_35_293
*1127 FILLER_0_35_3
*1128 FILLER_0_35_305
*1129 FILLER_0_35_317
*1130 FILLER_0_35_329
*1131 FILLER_0_35_335
*1132 FILLER_0_35_337
*1133 FILLER_0_35_349
*1134 FILLER_0_35_39
*1135 FILLER_0_35_51
*1136 FILLER_0_35_55
*1137 FILLER_0_35_57
*1138 FILLER_0_35_69
*1139 FILLER_0_35_81
*1140 FILLER_0_35_93
*1141 FILLER_0_36_109
*1142 FILLER_0_36_121
*1143 FILLER_0_36_133
*1144 FILLER_0_36_139
*1145 FILLER_0_36_141
*1146 FILLER_0_36_15
*1147 FILLER_0_36_153
*1148 FILLER_0_36_165
*1149 FILLER_0_36_173
*1150 FILLER_0_36_182
*1151 FILLER_0_36_194
*1152 FILLER_0_36_197
*1153 FILLER_0_36_209
*1154 FILLER_0_36_221
*1155 FILLER_0_36_233
*1156 FILLER_0_36_245
*1157 FILLER_0_36_251
*1158 FILLER_0_36_253
*1159 FILLER_0_36_265
*1160 FILLER_0_36_27
*1161 FILLER_0_36_277
*1162 FILLER_0_36_289
*1163 FILLER_0_36_29
*1164 FILLER_0_36_3
*1165 FILLER_0_36_301
*1166 FILLER_0_36_307
*1167 FILLER_0_36_309
*1168 FILLER_0_36_321
*1169 FILLER_0_36_333
*1170 FILLER_0_36_345
*1171 FILLER_0_36_41
*1172 FILLER_0_36_53
*1173 FILLER_0_36_65
*1174 FILLER_0_36_77
*1175 FILLER_0_36_83
*1176 FILLER_0_36_85
*1177 FILLER_0_36_97
*1178 FILLER_0_37_105
*1179 FILLER_0_37_111
*1180 FILLER_0_37_113
*1181 FILLER_0_37_125
*1182 FILLER_0_37_137
*1183 FILLER_0_37_15
*1184 FILLER_0_37_158
*1185 FILLER_0_37_166
*1186 FILLER_0_37_169
*1187 FILLER_0_37_175
*1188 FILLER_0_37_191
*1189 FILLER_0_37_203
*1190 FILLER_0_37_215
*1191 FILLER_0_37_223
*1192 FILLER_0_37_225
*1193 FILLER_0_37_237
*1194 FILLER_0_37_249
*1195 FILLER_0_37_261
*1196 FILLER_0_37_27
*1197 FILLER_0_37_273
*1198 FILLER_0_37_279
*1199 FILLER_0_37_281
*1200 FILLER_0_37_293
*1201 FILLER_0_37_3
*1202 FILLER_0_37_305
*1203 FILLER_0_37_317
*1204 FILLER_0_37_329
*1205 FILLER_0_37_335
*1206 FILLER_0_37_337
*1207 FILLER_0_37_349
*1208 FILLER_0_37_39
*1209 FILLER_0_37_51
*1210 FILLER_0_37_55
*1211 FILLER_0_37_57
*1212 FILLER_0_37_69
*1213 FILLER_0_37_81
*1214 FILLER_0_37_93
*1215 FILLER_0_38_102
*1216 FILLER_0_38_106
*1217 FILLER_0_38_110
*1218 FILLER_0_38_113
*1219 FILLER_0_38_118
*1220 FILLER_0_38_122
*1221 FILLER_0_38_126
*1222 FILLER_0_38_130
*1223 FILLER_0_38_134
*1224 FILLER_0_38_14
*1225 FILLER_0_38_176
*1226 FILLER_0_38_18
*1227 FILLER_0_38_180
*1228 FILLER_0_38_210
*1229 FILLER_0_38_22
*1230 FILLER_0_38_222
*1231 FILLER_0_38_225
*1232 FILLER_0_38_237
*1233 FILLER_0_38_249
*1234 FILLER_0_38_253
*1235 FILLER_0_38_265
*1236 FILLER_0_38_277
*1237 FILLER_0_38_281
*1238 FILLER_0_38_293
*1239 FILLER_0_38_3
*1240 FILLER_0_38_305
*1241 FILLER_0_38_32
*1242 FILLER_0_38_321
*1243 FILLER_0_38_329
*1244 FILLER_0_38_335
*1245 FILLER_0_38_337
*1246 FILLER_0_38_349
*1247 FILLER_0_38_38
*1248 FILLER_0_38_42
*1249 FILLER_0_38_46
*1250 FILLER_0_38_50
*1251 FILLER_0_38_54
*1252 FILLER_0_38_57
*1253 FILLER_0_38_62
*1254 FILLER_0_38_66
*1255 FILLER_0_38_70
*1256 FILLER_0_38_74
*1257 FILLER_0_38_78
*1258 FILLER_0_38_88
*1259 FILLER_0_38_94
*1260 FILLER_0_38_98
*1261 FILLER_0_3_105
*1262 FILLER_0_3_111
*1263 FILLER_0_3_113
*1264 FILLER_0_3_125
*1265 FILLER_0_3_137
*1266 FILLER_0_3_149
*1267 FILLER_0_3_15
*1268 FILLER_0_3_161
*1269 FILLER_0_3_167
*1270 FILLER_0_3_169
*1271 FILLER_0_3_181
*1272 FILLER_0_3_193
*1273 FILLER_0_3_205
*1274 FILLER_0_3_217
*1275 FILLER_0_3_223
*1276 FILLER_0_3_225
*1277 FILLER_0_3_237
*1278 FILLER_0_3_249
*1279 FILLER_0_3_261
*1280 FILLER_0_3_27
*1281 FILLER_0_3_273
*1282 FILLER_0_3_279
*1283 FILLER_0_3_281
*1284 FILLER_0_3_293
*1285 FILLER_0_3_3
*1286 FILLER_0_3_305
*1287 FILLER_0_3_317
*1288 FILLER_0_3_329
*1289 FILLER_0_3_335
*1290 FILLER_0_3_337
*1291 FILLER_0_3_349
*1292 FILLER_0_3_39
*1293 FILLER_0_3_51
*1294 FILLER_0_3_55
*1295 FILLER_0_3_57
*1296 FILLER_0_3_69
*1297 FILLER_0_3_81
*1298 FILLER_0_3_93
*1299 FILLER_0_4_109
*1300 FILLER_0_4_121
*1301 FILLER_0_4_133
*1302 FILLER_0_4_139
*1303 FILLER_0_4_141
*1304 FILLER_0_4_15
*1305 FILLER_0_4_153
*1306 FILLER_0_4_165
*1307 FILLER_0_4_177
*1308 FILLER_0_4_189
*1309 FILLER_0_4_195
*1310 FILLER_0_4_197
*1311 FILLER_0_4_209
*1312 FILLER_0_4_221
*1313 FILLER_0_4_233
*1314 FILLER_0_4_245
*1315 FILLER_0_4_251
*1316 FILLER_0_4_253
*1317 FILLER_0_4_265
*1318 FILLER_0_4_27
*1319 FILLER_0_4_277
*1320 FILLER_0_4_289
*1321 FILLER_0_4_29
*1322 FILLER_0_4_3
*1323 FILLER_0_4_301
*1324 FILLER_0_4_307
*1325 FILLER_0_4_309
*1326 FILLER_0_4_321
*1327 FILLER_0_4_333
*1328 FILLER_0_4_345
*1329 FILLER_0_4_41
*1330 FILLER_0_4_53
*1331 FILLER_0_4_65
*1332 FILLER_0_4_77
*1333 FILLER_0_4_83
*1334 FILLER_0_4_85
*1335 FILLER_0_4_97
*1336 FILLER_0_5_105
*1337 FILLER_0_5_111
*1338 FILLER_0_5_113
*1339 FILLER_0_5_125
*1340 FILLER_0_5_137
*1341 FILLER_0_5_149
*1342 FILLER_0_5_15
*1343 FILLER_0_5_161
*1344 FILLER_0_5_167
*1345 FILLER_0_5_169
*1346 FILLER_0_5_181
*1347 FILLER_0_5_193
*1348 FILLER_0_5_205
*1349 FILLER_0_5_217
*1350 FILLER_0_5_223
*1351 FILLER_0_5_225
*1352 FILLER_0_5_237
*1353 FILLER_0_5_249
*1354 FILLER_0_5_261
*1355 FILLER_0_5_27
*1356 FILLER_0_5_273
*1357 FILLER_0_5_279
*1358 FILLER_0_5_281
*1359 FILLER_0_5_293
*1360 FILLER_0_5_3
*1361 FILLER_0_5_305
*1362 FILLER_0_5_317
*1363 FILLER_0_5_329
*1364 FILLER_0_5_335
*1365 FILLER_0_5_337
*1366 FILLER_0_5_349
*1367 FILLER_0_5_39
*1368 FILLER_0_5_51
*1369 FILLER_0_5_55
*1370 FILLER_0_5_57
*1371 FILLER_0_5_69
*1372 FILLER_0_5_81
*1373 FILLER_0_5_93
*1374 FILLER_0_6_109
*1375 FILLER_0_6_121
*1376 FILLER_0_6_133
*1377 FILLER_0_6_139
*1378 FILLER_0_6_141
*1379 FILLER_0_6_15
*1380 FILLER_0_6_153
*1381 FILLER_0_6_165
*1382 FILLER_0_6_177
*1383 FILLER_0_6_189
*1384 FILLER_0_6_195
*1385 FILLER_0_6_197
*1386 FILLER_0_6_209
*1387 FILLER_0_6_221
*1388 FILLER_0_6_233
*1389 FILLER_0_6_245
*1390 FILLER_0_6_251
*1391 FILLER_0_6_253
*1392 FILLER_0_6_265
*1393 FILLER_0_6_27
*1394 FILLER_0_6_277
*1395 FILLER_0_6_289
*1396 FILLER_0_6_29
*1397 FILLER_0_6_3
*1398 FILLER_0_6_301
*1399 FILLER_0_6_307
*1400 FILLER_0_6_309
*1401 FILLER_0_6_321
*1402 FILLER_0_6_333
*1403 FILLER_0_6_345
*1404 FILLER_0_6_41
*1405 FILLER_0_6_53
*1406 FILLER_0_6_65
*1407 FILLER_0_6_77
*1408 FILLER_0_6_83
*1409 FILLER_0_6_85
*1410 FILLER_0_6_97
*1411 FILLER_0_7_105
*1412 FILLER_0_7_111
*1413 FILLER_0_7_113
*1414 FILLER_0_7_125
*1415 FILLER_0_7_137
*1416 FILLER_0_7_149
*1417 FILLER_0_7_15
*1418 FILLER_0_7_161
*1419 FILLER_0_7_167
*1420 FILLER_0_7_169
*1421 FILLER_0_7_181
*1422 FILLER_0_7_193
*1423 FILLER_0_7_205
*1424 FILLER_0_7_217
*1425 FILLER_0_7_223
*1426 FILLER_0_7_225
*1427 FILLER_0_7_237
*1428 FILLER_0_7_249
*1429 FILLER_0_7_261
*1430 FILLER_0_7_27
*1431 FILLER_0_7_273
*1432 FILLER_0_7_279
*1433 FILLER_0_7_281
*1434 FILLER_0_7_293
*1435 FILLER_0_7_3
*1436 FILLER_0_7_305
*1437 FILLER_0_7_317
*1438 FILLER_0_7_329
*1439 FILLER_0_7_335
*1440 FILLER_0_7_337
*1441 FILLER_0_7_349
*1442 FILLER_0_7_39
*1443 FILLER_0_7_51
*1444 FILLER_0_7_55
*1445 FILLER_0_7_57
*1446 FILLER_0_7_69
*1447 FILLER_0_7_81
*1448 FILLER_0_7_93
*1449 FILLER_0_8_109
*1450 FILLER_0_8_121
*1451 FILLER_0_8_133
*1452 FILLER_0_8_139
*1453 FILLER_0_8_141
*1454 FILLER_0_8_15
*1455 FILLER_0_8_153