*SPEF "ieee 1481-1999"
*DESIGN "tt_um_adder_NestorMatajira"
*DATE "11:11:11 Fri 11 11, 1111"
*VENDOR "OpenRCX"
*PROGRAM "Parallel Extraction"
*VERSION "1.0"
*DESIGN_FLOW "NAME_SCOPE LOCAL" "PIN_CAP NONE"
*DIVIDER /
*DELIMITER :
*BUS_DELIMITER []
*T_UNIT 1 NS
*C_UNIT 1 PF
*R_UNIT 1 OHM
*L_UNIT 1 HENRY

*NAME_MAP
*3 clk
*4 ena
*5 rst_n
*6 ui_in[0]
*7 ui_in[1]
*8 ui_in[2]
*9 ui_in[3]
*10 ui_in[4]
*11 ui_in[5]
*12 ui_in[6]
*13 ui_in[7]
*14 uio_in[0]
*15 uio_in[1]
*16 uio_in[2]
*17 uio_in[3]
*18 uio_in[4]
*19 uio_in[5]
*20 uio_in[6]
*21 uio_in[7]
*22 net12
*23 net13
*24 net14
*25 net15
*26 net16
*27 net17
*28 net18
*29 net19
*30 net20
*31 net21
*32 net22
*33 net23
*34 net24
*35 net25
*36 net26
*37 net27
*38 uo_out[0]
*39 uo_out[1]
*40 uo_out[2]
*41 uo_out[3]
*42 uo_out[4]
*43 net9
*44 net10
*45 net11
*46 SC1\.S
*47 SC2\.S
*48 SC3\.Cout
*49 SC3\.S
*50 SM\.S
*51 _00_
*52 _01_
*53 _02_
*54 _03_
*55 _04_
*56 _05_
*57 _06_
*58 _07_
*59 _08_
*60 _09_
*61 _10_
*62 _11_
*63 _12_
*64 net1
*65 net2
*66 net3
*67 net4
*68 net5
*69 net6
*70 net7
*71 net8
*72 FILLER_0_0_109
*73 FILLER_0_0_113
*74 FILLER_0_0_125
*75 FILLER_0_0_137
*76 FILLER_0_0_141
*77 FILLER_0_0_15
*78 FILLER_0_0_153
*79 FILLER_0_0_165
*80 FILLER_0_0_169
*81 FILLER_0_0_181
*82 FILLER_0_0_193
*83 FILLER_0_0_197
*84 FILLER_0_0_209
*85 FILLER_0_0_221
*86 FILLER_0_0_225
*87 FILLER_0_0_237
*88 FILLER_0_0_249
*89 FILLER_0_0_253
*90 FILLER_0_0_265
*91 FILLER_0_0_27
*92 FILLER_0_0_277
*93 FILLER_0_0_281
*94 FILLER_0_0_29
*95 FILLER_0_0_293
*96 FILLER_0_0_3
*97 FILLER_0_0_305
*98 FILLER_0_0_309
*99 FILLER_0_0_321
*100 FILLER_0_0_333
*101 FILLER_0_0_337
*102 FILLER_0_0_349
*103 FILLER_0_0_41
*104 FILLER_0_0_53
*105 FILLER_0_0_57
*106 FILLER_0_0_69
*107 FILLER_0_0_81
*108 FILLER_0_0_85
*109 FILLER_0_0_97
*110 FILLER_0_10_109
*111 FILLER_0_10_121
*112 FILLER_0_10_133
*113 FILLER_0_10_139
*114 FILLER_0_10_141
*115 FILLER_0_10_15
*116 FILLER_0_10_153
*117 FILLER_0_10_165
*118 FILLER_0_10_177
*119 FILLER_0_10_189
*120 FILLER_0_10_195
*121 FILLER_0_10_197
*122 FILLER_0_10_209
*123 FILLER_0_10_221
*124 FILLER_0_10_233
*125 FILLER_0_10_245
*126 FILLER_0_10_251
*127 FILLER_0_10_253
*128 FILLER_0_10_265
*129 FILLER_0_10_27
*130 FILLER_0_10_277
*131 FILLER_0_10_289
*132 FILLER_0_10_29
*133 FILLER_0_10_3
*134 FILLER_0_10_301
*135 FILLER_0_10_307
*136 FILLER_0_10_309
*137 FILLER_0_10_321
*138 FILLER_0_10_333
*139 FILLER_0_10_345
*140 FILLER_0_10_41
*141 FILLER_0_10_53
*142 FILLER_0_10_65
*143 FILLER_0_10_77
*144 FILLER_0_10_83
*145 FILLER_0_10_85
*146 FILLER_0_10_97
*147 FILLER_0_11_105
*148 FILLER_0_11_111
*149 FILLER_0_11_113
*150 FILLER_0_11_125
*151 FILLER_0_11_137
*152 FILLER_0_11_149
*153 FILLER_0_11_15
*154 FILLER_0_11_161
*155 FILLER_0_11_167
*156 FILLER_0_11_169
*157 FILLER_0_11_181
*158 FILLER_0_11_193
*159 FILLER_0_11_205
*160 FILLER_0_11_217
*161 FILLER_0_11_223
*162 FILLER_0_11_225
*163 FILLER_0_11_237
*164 FILLER_0_11_249
*165 FILLER_0_11_261
*166 FILLER_0_11_27
*167 FILLER_0_11_273
*168 FILLER_0_11_279
*169 FILLER_0_11_281
*170 FILLER_0_11_293
*171 FILLER_0_11_3
*172 FILLER_0_11_305
*173 FILLER_0_11_317
*174 FILLER_0_11_329
*175 FILLER_0_11_335
*176 FILLER_0_11_337
*177 FILLER_0_11_349
*178 FILLER_0_11_39
*179 FILLER_0_11_51
*180 FILLER_0_11_55
*181 FILLER_0_11_57
*182 FILLER_0_11_69
*183 FILLER_0_11_81
*184 FILLER_0_11_93
*185 FILLER_0_12_109
*186 FILLER_0_12_121
*187 FILLER_0_12_133
*188 FILLER_0_12_139
*189 FILLER_0_12_141
*190 FILLER_0_12_15
*191 FILLER_0_12_153
*192 FILLER_0_12_165
*193 FILLER_0_12_177
*194 FILLER_0_12_189
*195 FILLER_0_12_195
*196 FILLER_0_12_197
*197 FILLER_0_12_209
*198 FILLER_0_12_221
*199 FILLER_0_12_233
*200 FILLER_0_12_245
*201 FILLER_0_12_251
*202 FILLER_0_12_253
*203 FILLER_0_12_265
*204 FILLER_0_12_27
*205 FILLER_0_12_277
*206 FILLER_0_12_289
*207 FILLER_0_12_29
*208 FILLER_0_12_3
*209 FILLER_0_12_301
*210 FILLER_0_12_307
*211 FILLER_0_12_309
*212 FILLER_0_12_321
*213 FILLER_0_12_333
*214 FILLER_0_12_345
*215 FILLER_0_12_41
*216 FILLER_0_12_53
*217 FILLER_0_12_65
*218 FILLER_0_12_77
*219 FILLER_0_12_83
*220 FILLER_0_12_85
*221 FILLER_0_12_97
*222 FILLER_0_13_105
*223 FILLER_0_13_111
*224 FILLER_0_13_113
*225 FILLER_0_13_125
*226 FILLER_0_13_137
*227 FILLER_0_13_149
*228 FILLER_0_13_15
*229 FILLER_0_13_161
*230 FILLER_0_13_167
*231 FILLER_0_13_169
*232 FILLER_0_13_181
*233 FILLER_0_13_193
*234 FILLER_0_13_205
*235 FILLER_0_13_217
*236 FILLER_0_13_223
*237 FILLER_0_13_225
*238 FILLER_0_13_237
*239 FILLER_0_13_249
*240 FILLER_0_13_261
*241 FILLER_0_13_27
*242 FILLER_0_13_273
*243 FILLER_0_13_279
*244 FILLER_0_13_281
*245 FILLER_0_13_293
*246 FILLER_0_13_3
*247 FILLER_0_13_305
*248 FILLER_0_13_317
*249 FILLER_0_13_329
*250 FILLER_0_13_335
*251 FILLER_0_13_337
*252 FILLER_0_13_349
*253 FILLER_0_13_39
*254 FILLER_0_13_51
*255 FILLER_0_13_55
*256 FILLER_0_13_57
*257 FILLER_0_13_69
*258 FILLER_0_13_81
*259 FILLER_0_13_93
*260 FILLER_0_14_109
*261 FILLER_0_14_121
*262 FILLER_0_14_133
*263 FILLER_0_14_139
*264 FILLER_0_14_141
*265 FILLER_0_14_15
*266 FILLER_0_14_153
*267 FILLER_0_14_165
*268 FILLER_0_14_177
*269 FILLER_0_14_189
*270 FILLER_0_14_195
*271 FILLER_0_14_197
*272 FILLER_0_14_209
*273 FILLER_0_14_221
*274 FILLER_0_14_233
*275 FILLER_0_14_245
*276 FILLER_0_14_251
*277 FILLER_0_14_253
*278 FILLER_0_14_265
*279 FILLER_0_14_27
*280 FILLER_0_14_277
*281 FILLER_0_14_289
*282 FILLER_0_14_29
*283 FILLER_0_14_3
*284 FILLER_0_14_301
*285 FILLER_0_14_307
*286 FILLER_0_14_309
*287 FILLER_0_14_321
*288 FILLER_0_14_333
*289 FILLER_0_14_345
*290 FILLER_0_14_41
*291 FILLER_0_14_53
*292 FILLER_0_14_65
*293 FILLER_0_14_77
*294 FILLER_0_14_83
*295 FILLER_0_14_85
*296 FILLER_0_14_97
*297 FILLER_0_15_105
*298 FILLER_0_15_111
*299 FILLER_0_15_113
*300 FILLER_0_15_125
*301 FILLER_0_15_137
*302 FILLER_0_15_149
*303 FILLER_0_15_15
*304 FILLER_0_15_161
*305 FILLER_0_15_167
*306 FILLER_0_15_169
*307 FILLER_0_15_181
*308 FILLER_0_15_193
*309 FILLER_0_15_205
*310 FILLER_0_15_217
*311 FILLER_0_15_223
*312 FILLER_0_15_225
*313 FILLER_0_15_237
*314 FILLER_0_15_249
*315 FILLER_0_15_261
*316 FILLER_0_15_27
*317 FILLER_0_15_273
*318 FILLER_0_15_279
*319 FILLER_0_15_281
*320 FILLER_0_15_293
*321 FILLER_0_15_3
*322 FILLER_0_15_305
*323 FILLER_0_15_317
*324 FILLER_0_15_329
*325 FILLER_0_15_335
*326 FILLER_0_15_337
*327 FILLER_0_15_349
*328 FILLER_0_15_39
*329 FILLER_0_15_51
*330 FILLER_0_15_55
*331 FILLER_0_15_57
*332 FILLER_0_15_69
*333 FILLER_0_15_81
*334 FILLER_0_15_93
*335 FILLER_0_16_109
*336 FILLER_0_16_121
*337 FILLER_0_16_133
*338 FILLER_0_16_139
*339 FILLER_0_16_141
*340 FILLER_0_16_15
*341 FILLER_0_16_153
*342 FILLER_0_16_165
*343 FILLER_0_16_177
*344 FILLER_0_16_189
*345 FILLER_0_16_195
*346 FILLER_0_16_197
*347 FILLER_0_16_209
*348 FILLER_0_16_221
*349 FILLER_0_16_233
*350 FILLER_0_16_245
*351 FILLER_0_16_251
*352 FILLER_0_16_253
*353 FILLER_0_16_265
*354 FILLER_0_16_27
*355 FILLER_0_16_277
*356 FILLER_0_16_289
*357 FILLER_0_16_29
*358 FILLER_0_16_3
*359 FILLER_0_16_301
*360 FILLER_0_16_307
*361 FILLER_0_16_309
*362 FILLER_0_16_321
*363 FILLER_0_16_333
*364 FILLER_0_16_345
*365 FILLER_0_16_41
*366 FILLER_0_16_53
*367 FILLER_0_16_65
*368 FILLER_0_16_77
*369 FILLER_0_16_83
*370 FILLER_0_16_85
*371 FILLER_0_16_97
*372 FILLER_0_17_105
*373 FILLER_0_17_111
*374 FILLER_0_17_113
*375 FILLER_0_17_125
*376 FILLER_0_17_137
*377 FILLER_0_17_149
*378 FILLER_0_17_15
*379 FILLER_0_17_161
*380 FILLER_0_17_167
*381 FILLER_0_17_169
*382 FILLER_0_17_181
*383 FILLER_0_17_193
*384 FILLER_0_17_205
*385 FILLER_0_17_217
*386 FILLER_0_17_223
*387 FILLER_0_17_225
*388 FILLER_0_17_237
*389 FILLER_0_17_249
*390 FILLER_0_17_261
*391 FILLER_0_17_27
*392 FILLER_0_17_273
*393 FILLER_0_17_279
*394 FILLER_0_17_281
*395 FILLER_0_17_293
*396 FILLER_0_17_3
*397 FILLER_0_17_305
*398 FILLER_0_17_317
*399 FILLER_0_17_329
*400 FILLER_0_17_335
*401 FILLER_0_17_337
*402 FILLER_0_17_349
*403 FILLER_0_17_39
*404 FILLER_0_17_51
*405 FILLER_0_17_55
*406 FILLER_0_17_57
*407 FILLER_0_17_69
*408 FILLER_0_17_81
*409 FILLER_0_17_93
*410 FILLER_0_18_109
*411 FILLER_0_18_121
*412 FILLER_0_18_133
*413 FILLER_0_18_139
*414 FILLER_0_18_141
*415 FILLER_0_18_15
*416 FILLER_0_18_153
*417 FILLER_0_18_165
*418 FILLER_0_18_177
*419 FILLER_0_18_189
*420 FILLER_0_18_195
*421 FILLER_0_18_197
*422 FILLER_0_18_209
*423 FILLER_0_18_221
*424 FILLER_0_18_233
*425 FILLER_0_18_245
*426 FILLER_0_18_251
*427 FILLER_0_18_253
*428 FILLER_0_18_265
*429 FILLER_0_18_27
*430 FILLER_0_18_277
*431 FILLER_0_18_289
*432 FILLER_0_18_29
*433 FILLER_0_18_3
*434 FILLER_0_18_301
*435 FILLER_0_18_307
*436 FILLER_0_18_309
*437 FILLER_0_18_321
*438 FILLER_0_18_333
*439 FILLER_0_18_345
*440 FILLER_0_18_41
*441 FILLER_0_18_53
*442 FILLER_0_18_65
*443 FILLER_0_18_77
*444 FILLER_0_18_83
*445 FILLER_0_18_85
*446 FILLER_0_18_97
*447 FILLER_0_19_105
*448 FILLER_0_19_111
*449 FILLER_0_19_113
*450 FILLER_0_19_125
*451 FILLER_0_19_137
*452 FILLER_0_19_149
*453 FILLER_0_19_15
*454 FILLER_0_19_161
*455 FILLER_0_19_167
*456 FILLER_0_19_169
*457 FILLER_0_19_181
*458 FILLER_0_19_193
*459 FILLER_0_19_205
*460 FILLER_0_19_217
*461 FILLER_0_19_223
*462 FILLER_0_19_225
*463 FILLER_0_19_237
*464 FILLER_0_19_249
*465 FILLER_0_19_261
*466 FILLER_0_19_27
*467 FILLER_0_19_273
*468 FILLER_0_19_279
*469 FILLER_0_19_281
*470 FILLER_0_19_293
*471 FILLER_0_19_3
*472 FILLER_0_19_305
*473 FILLER_0_19_317
*474 FILLER_0_19_329
*475 FILLER_0_19_335
*476 FILLER_0_19_337
*477 FILLER_0_19_349
*478 FILLER_0_19_39
*479 FILLER_0_19_51
*480 FILLER_0_19_55
*481 FILLER_0_19_57
*482 FILLER_0_19_69
*483 FILLER_0_19_81
*484 FILLER_0_19_93
*485 FILLER_0_1_105
*486 FILLER_0_1_111
*487 FILLER_0_1_113
*488 FILLER_0_1_125
*489 FILLER_0_1_137
*490 FILLER_0_1_149
*491 FILLER_0_1_15
*492 FILLER_0_1_161
*493 FILLER_0_1_167
*494 FILLER_0_1_169
*495 FILLER_0_1_181
*496 FILLER_0_1_193
*497 FILLER_0_1_205
*498 FILLER_0_1_217
*499 FILLER_0_1_223
*500 FILLER_0_1_225
*501 FILLER_0_1_237
*502 FILLER_0_1_249
*503 FILLER_0_1_261
*504 FILLER_0_1_27
*505 FILLER_0_1_273
*506 FILLER_0_1_279
*507 FILLER_0_1_281
*508 FILLER_0_1_293
*509 FILLER_0_1_3
*510 FILLER_0_1_305
*511 FILLER_0_1_317
*512 FILLER_0_1_329
*513 FILLER_0_1_335
*514 FILLER_0_1_337
*515 FILLER_0_1_349
*516 FILLER_0_1_39
*517 FILLER_0_1_51
*518 FILLER_0_1_55
*519 FILLER_0_1_57
*520 FILLER_0_1_69
*521 FILLER_0_1_81
*522 FILLER_0_1_93
*523 FILLER_0_20_109
*524 FILLER_0_20_121
*525 FILLER_0_20_133
*526 FILLER_0_20_139
*527 FILLER_0_20_141
*528 FILLER_0_20_15
*529 FILLER_0_20_153
*530 FILLER_0_20_165
*531 FILLER_0_20_177
*532 FILLER_0_20_189
*533 FILLER_0_20_195
*534 FILLER_0_20_197
*535 FILLER_0_20_209
*536 FILLER_0_20_221
*537 FILLER_0_20_233
*538 FILLER_0_20_245
*539 FILLER_0_20_251
*540 FILLER_0_20_253
*541 FILLER_0_20_265
*542 FILLER_0_20_27
*543 FILLER_0_20_277
*544 FILLER_0_20_289
*545 FILLER_0_20_29
*546 FILLER_0_20_3
*547 FILLER_0_20_301
*548 FILLER_0_20_307
*549 FILLER_0_20_309
*550 FILLER_0_20_321
*551 FILLER_0_20_333
*552 FILLER_0_20_345
*553 FILLER_0_20_41
*554 FILLER_0_20_53
*555 FILLER_0_20_65
*556 FILLER_0_20_77
*557 FILLER_0_20_83
*558 FILLER_0_20_85
*559 FILLER_0_20_97
*560 FILLER_0_21_105
*561 FILLER_0_21_111
*562 FILLER_0_21_113
*563 FILLER_0_21_125
*564 FILLER_0_21_137
*565 FILLER_0_21_149
*566 FILLER_0_21_15
*567 FILLER_0_21_161
*568 FILLER_0_21_167
*569 FILLER_0_21_169
*570 FILLER_0_21_181
*571 FILLER_0_21_193
*572 FILLER_0_21_205
*573 FILLER_0_21_217
*574 FILLER_0_21_223
*575 FILLER_0_21_225
*576 FILLER_0_21_237
*577 FILLER_0_21_249
*578 FILLER_0_21_261
*579 FILLER_0_21_27
*580 FILLER_0_21_273
*581 FILLER_0_21_279
*582 FILLER_0_21_281
*583 FILLER_0_21_293
*584 FILLER_0_21_3
*585 FILLER_0_21_305
*586 FILLER_0_21_317
*587 FILLER_0_21_329
*588 FILLER_0_21_335
*589 FILLER_0_21_337
*590 FILLER_0_21_349
*591 FILLER_0_21_39
*592 FILLER_0_21_51
*593 FILLER_0_21_55
*594 FILLER_0_21_57
*595 FILLER_0_21_69
*596 FILLER_0_21_81
*597 FILLER_0_21_93
*598 FILLER_0_22_109
*599 FILLER_0_22_121
*600 FILLER_0_22_133
*601 FILLER_0_22_139
*602 FILLER_0_22_141
*603 FILLER_0_22_15
*604 FILLER_0_22_153
*605 FILLER_0_22_165
*606 FILLER_0_22_177
*607 FILLER_0_22_189
*608 FILLER_0_22_195
*609 FILLER_0_22_197
*610 FILLER_0_22_209
*611 FILLER_0_22_221
*612 FILLER_0_22_233
*613 FILLER_0_22_245
*614 FILLER_0_22_251
*615 FILLER_0_22_253
*616 FILLER_0_22_265
*617 FILLER_0_22_27
*618 FILLER_0_22_277
*619 FILLER_0_22_289
*620 FILLER_0_22_29
*621 FILLER_0_22_3
*622 FILLER_0_22_301
*623 FILLER_0_22_307
*624 FILLER_0_22_309
*625 FILLER_0_22_321
*626 FILLER_0_22_333
*627 FILLER_0_22_345
*628 FILLER_0_22_41
*629 FILLER_0_22_53
*630 FILLER_0_22_65
*631 FILLER_0_22_77
*632 FILLER_0_22_83
*633 FILLER_0_22_85
*634 FILLER_0_22_97
*635 FILLER_0_23_105
*636 FILLER_0_23_111
*637 FILLER_0_23_113
*638 FILLER_0_23_125
*639 FILLER_0_23_137
*640 FILLER_0_23_149
*641 FILLER_0_23_15
*642 FILLER_0_23_161
*643 FILLER_0_23_167
*644 FILLER_0_23_169
*645 FILLER_0_23_181
*646 FILLER_0_23_193
*647 FILLER_0_23_205
*648 FILLER_0_23_217
*649 FILLER_0_23_223
*650 FILLER_0_23_225
*651 FILLER_0_23_237
*652 FILLER_0_23_249
*653 FILLER_0_23_261
*654 FILLER_0_23_27
*655 FILLER_0_23_273
*656 FILLER_0_23_279
*657 FILLER_0_23_281
*658 FILLER_0_23_293
*659 FILLER_0_23_3
*660 FILLER_0_23_305
*661 FILLER_0_23_317
*662 FILLER_0_23_329
*663 FILLER_0_23_335
*664 FILLER_0_23_337
*665 FILLER_0_23_349
*666 FILLER_0_23_39
*667 FILLER_0_23_51
*668 FILLER_0_23_55
*669 FILLER_0_23_57
*670 FILLER_0_23_69
*671 FILLER_0_23_81
*672 FILLER_0_23_93
*673 FILLER_0_24_109
*674 FILLER_0_24_121
*675 FILLER_0_24_133
*676 FILLER_0_24_139
*677 FILLER_0_24_141
*678 FILLER_0_24_15
*679 FILLER_0_24_153
*680 FILLER_0_24_165
*681 FILLER_0_24_177
*682 FILLER_0_24_189
*683 FILLER_0_24_195
*684 FILLER_0_24_197
*685 FILLER_0_24_209
*686 FILLER_0_24_221
*687 FILLER_0_24_233
*688 FILLER_0_24_245
*689 FILLER_0_24_251
*690 FILLER_0_24_253
*691 FILLER_0_24_265
*692 FILLER_0_24_27
*693 FILLER_0_24_277
*694 FILLER_0_24_289
*695 FILLER_0_24_29
*696 FILLER_0_24_3
*697 FILLER_0_24_301
*698 FILLER_0_24_307
*699 FILLER_0_24_309
*700 FILLER_0_24_321
*701 FILLER_0_24_333
*702 FILLER_0_24_345
*703 FILLER_0_24_41
*704 FILLER_0_24_53
*705 FILLER_0_24_65
*706 FILLER_0_24_77
*707 FILLER_0_24_83
*708 FILLER_0_24_85
*709 FILLER_0_24_97
*710 FILLER_0_25_105
*711 FILLER_0_25_111
*712 FILLER_0_25_113
*713 FILLER_0_25_125
*714 FILLER_0_25_137
*715 FILLER_0_25_149
*716 FILLER_0_25_15
*717 FILLER_0_25_161
*718 FILLER_0_25_167
*719 FILLER_0_25_169
*720 FILLER_0_25_181
*721 FILLER_0_25_193
*722 FILLER_0_25_205
*723 FILLER_0_25_217
*724 FILLER_0_25_223
*725 FILLER_0_25_225
*726 FILLER_0_25_237
*727 FILLER_0_25_249
*728 FILLER_0_25_261
*729 FILLER_0_25_27
*730 FILLER_0_25_273
*731 FILLER_0_25_279
*732 FILLER_0_25_281
*733 FILLER_0_25_293
*734 FILLER_0_25_3
*735 FILLER_0_25_305
*736 FILLER_0_25_317
*737 FILLER_0_25_329
*738 FILLER_0_25_335
*739 FILLER_0_25_337
*740 FILLER_0_25_349
*741 FILLER_0_25_39
*742 FILLER_0_25_51
*743 FILLER_0_25_55
*744 FILLER_0_25_57
*745 FILLER_0_25_69
*746 FILLER_0_25_81
*747 FILLER_0_25_93
*748 FILLER_0_26_109
*749 FILLER_0_26_121
*750 FILLER_0_26_133
*751 FILLER_0_26_139
*752 FILLER_0_26_141
*753 FILLER_0_26_15
*754 FILLER_0_26_153
*755 FILLER_0_26_165
*756 FILLER_0_26_177
*757 FILLER_0_26_189
*758 FILLER_0_26_195
*759 FILLER_0_26_197
*760 FILLER_0_26_209
*761 FILLER_0_26_221
*762 FILLER_0_26_233
*763 FILLER_0_26_245
*764 FILLER_0_26_251
*765 FILLER_0_26_253
*766 FILLER_0_26_265
*767 FILLER_0_26_27
*768 FILLER_0_26_277
*769 FILLER_0_26_289
*770 FILLER_0_26_29
*771 FILLER_0_26_3
*772 FILLER_0_26_301
*773 FILLER_0_26_307
*774 FILLER_0_26_309
*775 FILLER_0_26_321
*776 FILLER_0_26_333
*777 FILLER_0_26_345
*778 FILLER_0_26_41
*779 FILLER_0_26_53
*780 FILLER_0_26_65
*781 FILLER_0_26_77
*782 FILLER_0_26_83
*783 FILLER_0_26_85
*784 FILLER_0_26_97
*785 FILLER_0_27_105
*786 FILLER_0_27_111
*787 FILLER_0_27_113
*788 FILLER_0_27_125
*789 FILLER_0_27_137
*790 FILLER_0_27_149
*791 FILLER_0_27_15
*792 FILLER_0_27_161
*793 FILLER_0_27_167
*794 FILLER_0_27_169
*795 FILLER_0_27_181
*796 FILLER_0_27_193
*797 FILLER_0_27_205
*798 FILLER_0_27_217
*799 FILLER_0_27_223
*800 FILLER_0_27_225
*801 FILLER_0_27_237
*802 FILLER_0_27_249
*803 FILLER_0_27_261
*804 FILLER_0_27_27
*805 FILLER_0_27_273
*806 FILLER_0_27_279
*807 FILLER_0_27_281
*808 FILLER_0_27_293
*809 FILLER_0_27_3
*810 FILLER_0_27_305
*811 FILLER_0_27_317
*812 FILLER_0_27_329
*813 FILLER_0_27_335
*814 FILLER_0_27_337
*815 FILLER_0_27_349
*816 FILLER_0_27_39
*817 FILLER_0_27_51
*818 FILLER_0_27_55
*819 FILLER_0_27_57
*820 FILLER_0_27_69
*821 FILLER_0_27_81
*822 FILLER_0_27_93
*823 FILLER_0_28_109
*824 FILLER_0_28_121
*825 FILLER_0_28_133
*826 FILLER_0_28_139
*827 FILLER_0_28_141
*828 FILLER_0_28_15
*829 FILLER_0_28_153
*830 FILLER_0_28_165
*831 FILLER_0_28_177
*832 FILLER_0_28_189
*833 FILLER_0_28_195
*834 FILLER_0_28_197
*835 FILLER_0_28_209
*836 FILLER_0_28_221
*837 FILLER_0_28_233
*838 FILLER_0_28_245
*839 FILLER_0_28_251
*840 FILLER_0_28_253
*841 FILLER_0_28_265
*842 FILLER_0_28_27
*843 FILLER_0_28_277
*844 FILLER_0_28_289
*845 FILLER_0_28_29
*846 FILLER_0_28_3
*847 FILLER_0_28_301
*848 FILLER_0_28_307
*849 FILLER_0_28_309
*850 FILLER_0_28_321
*851 FILLER_0_28_333
*852 FILLER_0_28_345
*853 FILLER_0_28_41
*854 FILLER_0_28_53
*855 FILLER_0_28_65
*856 FILLER_0_28_77
*857 FILLER_0_28_83
*858 FILLER_0_28_85
*859 FILLER_0_28_97
*860 FILLER_0_29_105
*861 FILLER_0_29_111
*862 FILLER_0_29_113
*863 FILLER_0_29_125
*864 FILLER_0_29_137
*865 FILLER_0_29_149
*866 FILLER_0_29_15
*867 FILLER_0_29_161
*868 FILLER_0_29_167
*869 FILLER_0_29_169
*870 FILLER_0_29_181
*871 FILLER_0_29_193
*872 FILLER_0_29_205
*873 FILLER_0_29_217
*874 FILLER_0_29_223
*875 FILLER_0_29_225
*876 FILLER_0_29_237
*877 FILLER_0_29_249
*878 FILLER_0_29_261
*879 FILLER_0_29_27
*880 FILLER_0_29_273
*881 FILLER_0_29_279
*882 FILLER_0_29_281
*883 FILLER_0_29_293
*884 FILLER_0_29_3
*885 FILLER_0_29_305
*886 FILLER_0_29_317
*887 FILLER_0_29_329
*888 FILLER_0_29_335
*889 FILLER_0_29_337
*890 FILLER_0_29_349
*891 FILLER_0_29_39
*892 FILLER_0_29_51
*893 FILLER_0_29_55
*894 FILLER_0_29_57
*895 FILLER_0_29_69
*896 FILLER_0_29_81
*897 FILLER_0_29_93
*898 FILLER_0_2_109
*899 FILLER_0_2_121
*900 FILLER_0_2_133
*901 FILLER_0_2_139
*902 FILLER_0_2_141
*903 FILLER_0_2_15
*904 FILLER_0_2_153
*905 FILLER_0_2_165
*906 FILLER_0_2_177
*907 FILLER_0_2_189
*908 FILLER_0_2_195
*909 FILLER_0_2_197
*910 FILLER_0_2_209
*911 FILLER_0_2_221
*912 FILLER_0_2_233
*913 FILLER_0_2_245
*914 FILLER_0_2_251
*915 FILLER_0_2_253
*916 FILLER_0_2_265
*917 FILLER_0_2_27
*918 FILLER_0_2_277
*919 FILLER_0_2_289
*920 FILLER_0_2_29
*921 FILLER_0_2_3
*922 FILLER_0_2_301
*923 FILLER_0_2_307
*924 FILLER_0_2_309
*925 FILLER_0_2_321
*926 FILLER_0_2_333
*927 FILLER_0_2_345
*928 FILLER_0_2_41
*929 FILLER_0_2_53
*930 FILLER_0_2_65
*931 FILLER_0_2_77
*932 FILLER_0_2_83
*933 FILLER_0_2_85
*934 FILLER_0_2_97
*935 FILLER_0_30_109
*936 FILLER_0_30_121
*937 FILLER_0_30_133
*938 FILLER_0_30_139
*939 FILLER_0_30_141
*940 FILLER_0_30_15
*941 FILLER_0_30_153
*942 FILLER_0_30_165
*943 FILLER_0_30_177
*944 FILLER_0_30_189
*945 FILLER_0_30_195
*946 FILLER_0_30_197
*947 FILLER_0_30_209
*948 FILLER_0_30_221
*949 FILLER_0_30_233
*950 FILLER_0_30_245
*951 FILLER_0_30_251
*952 FILLER_0_30_253
*953 FILLER_0_30_265
*954 FILLER_0_30_27
*955 FILLER_0_30_277
*956 FILLER_0_30_289
*957 FILLER_0_30_29
*958 FILLER_0_30_3
*959 FILLER_0_30_301
*960 FILLER_0_30_307
*961 FILLER_0_30_309
*962 FILLER_0_30_321
*963 FILLER_0_30_333
*964 FILLER_0_30_345
*965 FILLER_0_30_41
*966 FILLER_0_30_53
*967 FILLER_0_30_65
*968 FILLER_0_30_77
*969 FILLER_0_30_83
*970 FILLER_0_30_85
*971 FILLER_0_30_97
*972 FILLER_0_31_105
*973 FILLER_0_31_111
*974 FILLER_0_31_113
*975 FILLER_0_31_125
*976 FILLER_0_31_137
*977 FILLER_0_31_149
*978 FILLER_0_31_15
*979 FILLER_0_31_161
*980 FILLER_0_31_167
*981 FILLER_0_31_169
*982 FILLER_0_31_181
*983 FILLER_0_31_193
*984 FILLER_0_31_205
*985 FILLER_0_31_217
*986 FILLER_0_31_223
*987 FILLER_0_31_225
*988 FILLER_0_31_237
*989 FILLER_0_31_249
*990 FILLER_0_31_261
*991 FILLER_0_31_27
*992 FILLER_0_31_273
*993 FILLER_0_31_279
*994 FILLER_0_31_281
*995 FILLER_0_31_293
*996 FILLER_0_31_3
*997 FILLER_0_31_305
*998 FILLER_0_31_317
*999 FILLER_0_31_329
*1000 FILLER_0_31_335
*1001 FILLER_0_31_337
*1002 FILLER_0_31_349
*1003 FILLER_0_31_39
*1004 FILLER_0_31_51
*1005 FILLER_0_31_55
*1006 FILLER_0_31_57
*1007 FILLER_0_31_69
*1008 FILLER_0_31_81
*1009 FILLER_0_31_93
*1010 FILLER_0_32_109
*1011 FILLER_0_32_121
*1012 FILLER_0_32_133
*1013 FILLER_0_32_139
*1014 FILLER_0_32_141
*1015 FILLER_0_32_15
*1016 FILLER_0_32_153
*1017 FILLER_0_32_165
*1018 FILLER_0_32_177
*1019 FILLER_0_32_189
*1020 FILLER_0_32_195
*1021 FILLER_0_32_197
*1022 FILLER_0_32_209
*1023 FILLER_0_32_221
*1024 FILLER_0_32_233
*1025 FILLER_0_32_245
*1026 FILLER_0_32_251
*1027 FILLER_0_32_253
*1028 FILLER_0_32_265
*1029 FILLER_0_32_27
*1030 FILLER_0_32_277
*1031 FILLER_0_32_289
*1032 FILLER_0_32_29
*1033 FILLER_0_32_3
*1034 FILLER_0_32_301
*1035 FILLER_0_32_307
*1036 FILLER_0_32_309
*1037 FILLER_0_32_321
*1038 FILLER_0_32_333
*1039 FILLER_0_32_345
*1040 FILLER_0_32_41
*1041 FILLER_0_32_53
*1042 FILLER_0_32_65
*1043 FILLER_0_32_77
*1044 FILLER_0_32_83
*1045 FILLER_0_32_85
*1046 FILLER_0_32_97
*1047 FILLER_0_33_105
*1048 FILLER_0_33_111
*1049 FILLER_0_33_113
*1050 FILLER_0_33_125
*1051 FILLER_0_33_137
*1052 FILLER_0_33_149
*1053 FILLER_0_33_15
*1054 FILLER_0_33_161
*1055 FILLER_0_33_167
*1056 FILLER_0_33_169
*1057 FILLER_0_33_181
*1058 FILLER_0_33_193
*1059 FILLER_0_33_205
*1060 FILLER_0_33_217
*1061 FILLER_0_33_223
*1062 FILLER_0_33_225
*1063 FILLER_0_33_237
*1064 FILLER_0_33_249
*1065 FILLER_0_33_261
*1066 FILLER_0_33_27
*1067 FILLER_0_33_273
*1068 FILLER_0_33_279
*1069 FILLER_0_33_281
*1070 FILLER_0_33_293
*1071 FILLER_0_33_3
*1072 FILLER_0_33_305
*1073 FILLER_0_33_317
*1074 FILLER_0_33_329
*1075 FILLER_0_33_335
*1076 FILLER_0_33_337
*1077 FILLER_0_33_349
*1078 FILLER_0_33_39
*1079 FILLER_0_33_51
*1080 FILLER_0_33_55
*1081 FILLER_0_33_57
*1082 FILLER_0_33_69
*1083 FILLER_0_33_81
*1084 FILLER_0_33_93
*1085 FILLER_0_34_109
*1086 FILLER_0_34_121
*1087 FILLER_0_34_133
*1088 FILLER_0_34_139
*1089 FILLER_0_34_141
*1090 FILLER_0_34_15
*1091 FILLER_0_34_153
*1092 FILLER_0_34_165
*1093 FILLER_0_34_177
*1094 FILLER_0_34_189
*1095 FILLER_0_34_195
*1096 FILLER_0_34_197
*1097 FILLER_0_34_209
*1098 FILLER_0_34_221
*1099 FILLER_0_34_233
*1100 FILLER_0_34_245
*1101 FILLER_0_34_251
*1102 FILLER_0_34_253
*1103 FILLER_0_34_265
*1104 FILLER_0_34_27
*1105 FILLER_0_34_277
*1106 FILLER_0_34_289
*1107 FILLER_0_34_29
*1108 FILLER_0_34_3
*1109 FILLER_0_34_301
*1110 FILLER_0_34_307
*1111 FILLER_0_34_309
*1112 FILLER_0_34_321
*1113 FILLER_0_34_333
*1114 FILLER_0_34_345
*1115 FILLER_0_34_41
*1116 FILLER_0_34_53
*1117 FILLER_0_34_65
*1118 FILLER_0_34_77
*1119 FILLER_0_34_83
*1120 FILLER_0_34_85
*1121 FILLER_0_34_97
*1122 FILLER_0_35_105
*1123 FILLER_0_35_111
*1124 FILLER_0_35_113
*1125 FILLER_0_35_125
*1126 FILLER_0_35_137
*1127 FILLER_0_35_149
*1128 FILLER_0_35_15
*1129 FILLER_0_35_161
*1130 FILLER_0_35_167
*1131 FILLER_0_35_169
*1132 FILLER_0_35_181
*1133 FILLER_0_35_193
*1134 FILLER_0_35_205
*1135 FILLER_0_35_217
*1136 FILLER_0_35_223
*1137 FILLER_0_35_225
*1138 FILLER_0_35_237
*1139 FILLER_0_35_249
*1140 FILLER_0_35_261
*1141 FILLER_0_35_27
*1142 FILLER_0_35_273
*1143 FILLER_0_35_279
*1144 FILLER_0_35_281
*1145 FILLER_0_35_293
*1146 FILLER_0_35_3
*1147 FILLER_0_35_305
*1148 FILLER_0_35_317
*1149 FILLER_0_35_329
*1150 FILLER_0_35_335
*1151 FILLER_0_35_337
*1152 FILLER_0_35_349
*1153 FILLER_0_35_39
*1154 FILLER_0_35_51
*1155 FILLER_0_35_55
*1156 FILLER_0_35_57
*1157 FILLER_0_35_69
*1158 FILLER_0_35_81
*1159 FILLER_0_35_93
*1160 FILLER_0_36_109
*1161 FILLER_0_36_121
*1162 FILLER_0_36_133
*1163 FILLER_0_36_139
*1164 FILLER_0_36_141
*1165 FILLER_0_36_15
*1166 FILLER_0_36_153
*1167 FILLER_0_36_165
*1168 FILLER_0_36_177
*1169 FILLER_0_36_189
*1170 FILLER_0_36_195
*1171 FILLER_0_36_197
*1172 FILLER_0_36_209
*1173 FILLER_0_36_221
*1174 FILLER_0_36_229
*1175 FILLER_0_36_236
*1176 FILLER_0_36_248
*1177 FILLER_0_36_253
*1178 FILLER_0_36_265
*1179 FILLER_0_36_27
*1180 FILLER_0_36_277
*1181 FILLER_0_36_281
*1182 FILLER_0_36_287
*1183 FILLER_0_36_29
*1184 FILLER_0_36_299
*1185 FILLER_0_36_3
*1186 FILLER_0_36_307
*1187 FILLER_0_36_309
*1188 FILLER_0_36_321
*1189 FILLER_0_36_333
*1190 FILLER_0_36_345
*1191 FILLER_0_36_41
*1192 FILLER_0_36_53
*1193 FILLER_0_36_65
*1194 FILLER_0_36_77
*1195 FILLER_0_36_83
*1196 FILLER_0_36_85
*1197 FILLER_0_36_97
*1198 FILLER_0_37_105
*1199 FILLER_0_37_111
*1200 FILLER_0_37_113
*1201 FILLER_0_37_125
*1202 FILLER_0_37_137
*1203 FILLER_0_37_149
*1204 FILLER_0_37_15
*1205 FILLER_0_37_161
*1206 FILLER_0_37_167
*1207 FILLER_0_37_169
*1208 FILLER_0_37_181
*1209 FILLER_0_37_193
*1210 FILLER_0_37_205
*1211 FILLER_0_37_217
*1212 FILLER_0_37_223
*1213 FILLER_0_37_225
*1214 FILLER_0_37_242
*1215 FILLER_0_37_250
*1216 FILLER_0_37_27
*1217 FILLER_0_37_270
*1218 FILLER_0_37_278
*1219 FILLER_0_37_3
*1220 FILLER_0_37_307
*1221 FILLER_0_37_319
*1222 FILLER_0_37_331
*1223 FILLER_0_37_335
*1224 FILLER_0_37_337
*1225 FILLER_0_37_349
*1226 FILLER_0_37_39
*1227 FILLER_0_37_51
*1228 FILLER_0_37_55
*1229 FILLER_0_37_57
*1230 FILLER_0_37_69
*1231 FILLER_0_37_81
*1232 FILLER_0_37_93
*1233 FILLER_0_38_102
*1234 FILLER_0_38_106
*1235 FILLER_0_38_110
*1236 FILLER_0_38_113
*1237 FILLER_0_38_118
*1238 FILLER_0_38_122
*1239 FILLER_0_38_126
*1240 FILLER_0_38_130
*1241 FILLER_0_38_134
*1242 FILLER_0_38_14
*1243 FILLER_0_38_144
*1244 FILLER_0_38_150
*1245 FILLER_0_38_154
*1246 FILLER_0_38_158
*1247 FILLER_0_38_166
*1248 FILLER_0_38_169
*1249 FILLER_0_38_177
*1250 FILLER_0_38_18
*1251 FILLER_0_38_184
*1252 FILLER_0_38_194
*1253 FILLER_0_38_204
*1254 FILLER_0_38_212
*1255 FILLER_0_38_22
*1256 FILLER_0_38_220
*1257 FILLER_0_38_225
*1258 FILLER_0_38_237
*1259 FILLER_0_38_247
*1260 FILLER_0_38_251
*1261 FILLER_0_38_253
*1262 FILLER_0_38_265
*1263 FILLER_0_38_279
*1264 FILLER_0_38_287
*1265 FILLER_0_38_294
*1266 FILLER_0_38_3
*1267 FILLER_0_38_306
*1268 FILLER_0_38_312
*1269 FILLER_0_38_318
*1270 FILLER_0_38_32
*1271 FILLER_0_38_322
*1272 FILLER_0_38_326
*1273 FILLER_0_38_334
*1274 FILLER_0_38_337
*1275 FILLER_0_38_349
*1276 FILLER_0_38_38
*1277 FILLER_0_38_42
*1278 FILLER_0_38_46
*1279 FILLER_0_38_50
*1280 FILLER_0_38_54
*1281 FILLER_0_38_57
*1282 FILLER_0_38_62
*1283 FILLER_0_38_66
*1284 FILLER_0_38_70
*1285 FILLER_0_38_74
*1286 FILLER_0_38_78
*1287 FILLER_0_38_88
*1288 FILLER_0_38_94
*1289 FILLER_0_38_98
*1290 FILLER_0_3_105
*1291 FILLER_0_3_111
*1292 FILLER_0_3_113
*1293 FILLER_0_3_125
*1294 FILLER_0_3_137
*1295 FILLER_0_3_149
*1296 FILLER_0_3_15
*1297 FILLER_0_3_161
*1298 FILLER_0_3_167
*1299 FILLER_0_3_169
*1300 FILLER_0_3_181
*1301 FILLER_0_3_193
*1302 FILLER_0_3_205
*1303 FILLER_0_3_217
*1304 FILLER_0_3_223
*1305 FILLER_0_3_225
*1306 FILLER_0_3_237
*1307 FILLER_0_3_249
*1308 FILLER_0_3_261
*1309 FILLER_0_3_27
*1310 FILLER_0_3_273
*1311 FILLER_0_3_279
*1312 FILLER_0_3_281
*1313 FILLER_0_3_293
*1314 FILLER_0_3_3
*1315 FILLER_0_3_305
*1316 FILLER_0_3_317
*1317 FILLER_0_3_329
*1318 FILLER_0_3_335
*1319 FILLER_0_3_337
*1320 FILLER_0_3_349
*1321 FILLER_0_3_39
*1322 FILLER_0_3_51
*1323 FILLER_0_3_55
*1324 FILLER_0_3_57
*1325 FILLER_0_3_69
*1326 FILLER_0_3_81
*1327 FILLER_0_3_93
*1328 FILLER_0_4_109
*1329 FILLER_0_4_121
*1330 FILLER_0_4_133
*1331 FILLER_0_4_139
*1332 FILLER_0_4_141
*1333 FILLER_0_4_15
*1334 FILLER_0_4_153
*1335 FILLER_0_4_165
*1336 FILLER_0_4_177
*1337 FILLER_0_4_189
*1338 FILLER_0_4_195
*1339 FILLER_0_4_197
*1340 FILLER_0_4_209
*1341 FILLER_0_4_221
*1342 FILLER_0_4_233
*1343 FILLER_0_4_245
*1344 FILLER_0_4_251
*1345 FILLER_0_4_253
*1346 FILLER_0_4_265
*1347 FILLER_0_4_27
*1348 FILLER_0_4_277
*1349 FILLER_0_4_289
*1350 FILLER_0_4_29
*1351 FILLER_0_4_3
*1352 FILLER_0_4_301
*1353 FILLER_0_4_307
*1354 FILLER_0_4_309
*1355 FILLER_0_4_321
*1356 FILLER_0_4_333
*1357 FILLER_0_4_345
*1358 FILLER_0_4_41
*1359 FILLER_0_4_53
*1360 FILLER_0_4_65
*1361 FILLER_0_4_77
*1362 FILLER_0_4_83
*1363 FILLER_0_4_85
*1364 FILLER_0_4_97
*1365 FILLER_0_5_105
*1366 FILLER_0_5_111
*1367 FILLER_0_5_113
*1368 FILLER_0_5_125
*1369 FILLER_0_5_137
*1370 FILLER_0_5_149
*1371 FILLER_0_5_15
*1372 FILLER_0_5_161
*1373 FILLER_0_5_167
*1374 FILLER_0_5_169
*1375 FILLER_0_5_181
*1376 FILLER_0_5_193
*1377 FILLER_0_5_205
*1378 FILLER_0_5_217
*1379 FILLER_0_5_223
*1380 FILLER_0_5_225
*1381 FILLER_0_5_237
*1382 FILLER_0_5_249
*1383 FILLER_0_5_261
*1384 FILLER_0_5_27
*1385 FILLER_0_5_273
*1386 FILLER_0_5_279
*1387 FILLER_0_5_281
*1388 FILLER_0_5_293
*1389 FILLER_0_5_3
*1390 FILLER_0_5_305
*1391 FILLER_0_5_317
*1392 FILLER_0_5_329
*1393 FILLER_0_5_335
*1394 FILLER_0_5_337
*1395 FILLER_0_5_349
*1396 FILLER_0_5_39
*1397 FILLER_0_5_51
*1398 FILLER_0_5_55
*1399 FILLER_0_5_57
*1400 FILLER_0_5_69
*1401 FILLER_0_5_81
*1402 FILLER_0_5_93
*1403 FILLER_0_6_109
*1404 FILLER_0_6_121
*1405 FILLER_0_6_133
*1406 FILLER_0_6_139
*1407 FILLER_0_6_141
*1408 FILLER_0_6_15
*1409 FILLER_0_6_153
*1410 FILLER_0_6_165
*1411 FILLER_0_6_177
*1412 FILLER_0_6_189
*1413 FILLER_0_6_195
*1414 FILLER_0_6_197
*1415 FILLER_0_6_209
*1416 FILLER_0_6_221
*1417 FILLER_0_6_233
*1418 FILLER_0_6_245
*1419 FILLER_0_6_251
*1420 FILLER_0_6_253
*1421 FILLER_0_6_265
*1422 FILLER_0_6_27
*1423 FILLER_0_6_277
*1424 FILLER_0_6_289
*1425 FILLER_0_6_29
*1426 FILLER_0_6_3
*1427 FILLER_0_6_301
*1428 FILLER_0_6_307
*1429 FILLER_0_6_309
*1430 FILLER_0_6_321
*1431 FILLER_0_6_333
*1432 FILLER_0_6_345
*1433 FILLER_0_6_41
*1434 FILLER_0_6_53
*1435 FILLER_0_6_65
*1436 FILLER_0_6_77
*1437 FILLER_0_6_83
*1438 FILLER_0_6_85
*1439 FILLER_0_6_97
*1440 FILLER_0_7_105
*1441 FILLER_0_7_111
*1442 FILLER_0_7_113
*1443 FILLER_0_7_125
*1444 FILLER_0_7_137
*1445 FILLER_0_7_149
*1446 FILLER_0_7_15
*1447 FILLER_0_7_161
*1448 FILLER_0_7_167
*1449 FILLER_0_7_169
*1450 FILLER_0_7_181
*1451 FILLER_0_7_193
*1452 FILLER_0_7_205
*1453 FILLER_0_7_217
*1454 FILLER_0_7_223
*1455 FILLER_0_7_225
*1456 FILLER_0_7_237
*1457 FILLER_0_7_249
*1458 FILLER_0_7_261
*1459 FILLER_0_7_27
*1460 FILLER_0_7_273
*1461 FILLER_0_7_279
*1462 FILLER_0_7_281