*SPEF "ieee 1481-1999"
*DESIGN "tt_um_fifo_stevej"
*DATE "11:11:11 Fri 11 11, 1111"
*VENDOR "OpenRCX"
*PROGRAM "Parallel Extraction"
*VERSION "1.0"
*DESIGN_FLOW "NAME_SCOPE LOCAL" "PIN_CAP NONE"
*DIVIDER /
*DELIMITER :
*BUS_DELIMITER []
*T_UNIT 1 NS
*C_UNIT 1 PF
*R_UNIT 1 OHM
*L_UNIT 1 HENRY

*NAME_MAP
*3 clk
*4 ena
*5 rst_n
*6 ui_in[0]
*7 ui_in[1]
*8 ui_in[2]
*9 ui_in[3]
*10 ui_in[4]
*11 ui_in[5]
*12 ui_in[6]
*13 ui_in[7]
*14 uio_in[0]
*15 uio_in[1]
*16 uio_in[2]
*17 uio_in[3]
*18 uio_in[4]
*19 uio_in[5]
*20 uio_in[6]
*21 uio_in[7]
*22 net17
*23 net18
*24 net19
*25 net20
*26 net21
*27 net22
*28 net13
*29 net14
*30 uio_out[0]
*31 uio_out[1]
*32 uio_out[2]
*33 uio_out[3]
*34 uio_out[4]
*35 uio_out[5]
*36 net15
*37 net16
*38 uo_out[0]
*39 uo_out[1]
*40 uo_out[2]
*41 uo_out[3]
*42 uo_out[4]
*43 uo_out[5]
*44 uo_out[6]
*45 uo_out[7]
*46 _0000_
*47 _0001_
*48 _0002_
*49 _0003_
*50 _0004_
*51 _0005_
*52 _0006_
*53 _0007_
*54 _0008_
*55 _0009_
*56 _0010_
*57 _0011_
*58 _0012_
*59 _0013_
*60 _0014_
*61 _0015_
*62 _0016_
*63 _0017_
*64 _0018_
*65 _0019_
*66 _0020_
*67 _0021_
*68 _0022_
*69 _0023_
*70 _0024_
*71 _0025_
*72 _0026_
*73 _0027_
*74 _0028_
*75 _0029_
*76 _0030_
*77 _0031_
*78 _0032_
*79 _0033_
*80 _0034_
*81 _0035_
*82 _0036_
*83 _0037_
*84 _0038_
*85 _0039_
*86 _0040_
*87 _0041_
*88 _0042_
*89 _0043_
*90 _0044_
*91 _0045_
*92 _0046_
*93 _0047_
*94 _0048_
*95 _0049_
*96 _0050_
*97 _0051_
*98 _0052_
*99 _0053_
*100 _0054_
*101 _0055_
*102 _0056_
*103 _0057_
*104 _0058_
*105 _0059_
*106 _0060_
*107 _0061_
*108 _0062_
*109 _0063_
*110 _0064_
*111 _0065_
*112 _0066_
*113 _0067_
*114 _0068_
*115 _0069_
*116 _0070_
*117 _0071_
*118 _0072_
*119 _0073_
*120 _0074_
*121 _0075_
*122 _0076_
*123 _0077_
*124 _0078_
*125 _0079_
*126 _0080_
*127 _0081_
*128 _0082_
*129 _0083_
*130 _0084_
*131 _0085_
*132 _0086_
*133 _0087_
*134 _0088_
*135 _0089_
*136 _0090_
*137 _0091_
*138 _0092_
*139 _0093_
*140 _0094_
*141 _0095_
*142 _0096_
*143 _0097_
*144 _0098_
*145 _0099_
*146 _0100_
*147 _0101_
*148 _0102_
*149 _0103_
*150 _0104_
*151 _0105_
*152 _0106_
*153 _0107_
*154 _0108_
*155 _0109_
*156 _0110_
*157 _0111_
*158 _0112_
*159 _0113_
*160 _0114_
*161 _0115_
*162 _0116_
*163 _0117_
*164 _0118_
*165 _0119_
*166 _0120_
*167 _0121_
*168 _0122_
*169 _0123_
*170 _0124_
*171 _0125_
*172 _0126_
*173 _0127_
*174 _0128_
*175 _0129_
*176 _0130_
*177 _0131_
*178 _0132_
*179 _0133_
*180 _0134_
*181 _0135_
*182 _0136_
*183 _0137_
*184 _0138_
*185 _0139_
*186 _0140_
*187 _0141_
*188 _0142_
*189 _0143_
*190 _0144_
*191 _0145_
*192 _0146_
*193 _0147_
*194 _0148_
*195 _0149_
*196 _0150_
*197 _0151_
*198 _0152_
*199 _0153_
*200 _0154_
*201 _0155_
*202 _0156_
*203 _0157_
*204 _0158_
*205 _0159_
*206 _0160_
*207 _0161_
*208 _0162_
*209 _0163_
*210 _0164_
*211 _0165_
*212 _0166_
*213 _0167_
*214 _0168_
*215 _0169_
*216 _0170_
*217 _0171_
*218 _0172_
*219 _0173_
*220 _0174_
*221 _0175_
*222 _0176_
*223 _0177_
*224 _0178_
*225 _0179_
*226 _0180_
*227 _0181_
*228 _0182_
*229 _0183_
*230 _0184_
*231 _0185_
*232 _0186_
*233 _0187_
*234 _0188_
*235 _0189_
*236 _0190_
*237 _0191_
*238 _0192_
*239 _0193_
*240 _0194_
*241 _0195_
*242 _0196_
*243 _0197_
*244 _0198_
*245 _0199_
*246 _0200_
*247 _0201_
*248 _0202_
*249 _0203_
*250 _0204_
*251 _0205_
*252 _0206_
*253 _0207_
*254 _0208_
*255 _0209_
*256 _0210_
*257 _0211_
*258 _0212_
*259 _0213_
*260 _0214_
*261 _0215_
*262 _0216_
*263 _0217_
*264 _0218_
*265 _0219_
*266 _0220_
*267 _0221_
*268 _0222_
*269 _0223_
*270 _0224_
*271 _0225_
*272 _0226_
*273 _0227_
*274 _0228_
*275 _0229_
*276 _0230_
*277 _0231_
*278 _0232_
*279 _0233_
*280 _0234_
*281 _0235_
*282 _0236_
*283 _0237_
*284 _0238_
*285 _0239_
*286 _0240_
*287 _0241_
*288 _0242_
*289 _0243_
*290 _0244_
*291 _0245_
*292 _0246_
*293 _0247_
*294 _0248_
*295 _0249_
*296 _0250_
*297 _0251_
*298 _0252_
*299 _0253_
*300 _0254_
*301 _0255_
*302 _0256_
*303 _0257_
*304 _0258_
*305 _0259_
*306 _0260_
*307 _0261_
*308 _0262_
*309 _0263_
*310 _0264_
*311 _0265_
*312 _0266_
*313 _0267_
*314 _0268_
*315 _0269_
*316 _0270_
*317 _0271_
*318 _0272_
*319 _0273_
*320 _0274_
*321 _0275_
*322 _0276_
*323 _0277_
*324 _0278_
*325 _0279_
*326 _0280_
*327 _0281_
*328 _0282_
*329 _0283_
*330 _0284_
*331 _0285_
*332 _0286_
*333 _0287_
*334 _0288_
*335 _0289_
*336 _0290_
*337 _0291_
*338 _0292_
*339 _0293_
*340 _0294_
*341 _0295_
*342 _0296_
*343 _0297_
*344 _0298_
*345 _0299_
*346 _0300_
*347 _0301_
*348 _0302_
*349 _0303_
*350 _0304_
*351 _0305_
*352 _0306_
*353 _0307_
*354 _0308_
*355 _0309_
*356 _0310_
*357 _0311_
*358 _0312_
*359 _0313_
*360 _0314_
*361 _0315_
*362 _0316_
*363 _0317_
*364 _0318_
*365 _0319_
*366 _0320_
*367 _0321_
*368 _0322_
*369 _0323_
*370 _0324_
*371 _0325_
*372 _0326_
*373 _0327_
*374 _0328_
*375 _0329_
*376 _0330_
*377 _0331_
*378 _0332_
*379 _0333_
*380 _0334_
*381 _0335_
*382 _0336_
*383 _0337_
*384 _0338_
*385 _0339_
*386 _0340_
*387 _0341_
*388 _0342_
*389 _0343_
*390 _0344_
*391 _0345_
*392 _0346_
*393 _0347_
*394 _0348_
*395 _0349_
*396 _0350_
*397 _0351_
*398 _0352_
*399 _0353_
*400 _0354_
*401 _0355_
*402 _0356_
*403 _0357_
*404 _0358_
*405 _0359_
*406 _0360_
*407 _0361_
*408 _0362_
*409 _0363_
*410 _0364_
*411 _0365_
*412 _0366_
*413 _0367_
*414 _0368_
*415 _0369_
*416 _0370_
*417 _0371_
*418 _0372_
*419 _0373_
*420 _0374_
*421 _0375_
*422 _0376_
*423 _0377_
*424 _0378_
*425 _0379_
*426 _0380_
*427 _0381_
*428 _0382_
*429 _0383_
*430 _0384_
*431 _0385_
*432 _0386_
*433 _0387_
*434 _0388_
*435 _0389_
*436 _0390_
*437 _0391_
*438 _0392_
*439 _0393_
*440 _0394_
*441 _0395_
*442 _0396_
*443 _0397_
*444 _0398_
*445 _0399_
*446 _0400_
*447 _0401_
*448 _0402_
*449 _0403_
*450 _0404_
*451 _0405_
*452 _0406_
*453 _0407_
*454 _0408_
*455 _0409_
*456 _0410_
*457 _0411_
*458 _0412_
*459 _0413_
*460 _0414_
*461 _0415_
*462 _0416_
*463 _0417_
*464 _0418_
*465 _0419_
*466 _0420_
*467 _0421_
*468 _0422_
*469 _0423_
*470 _0424_
*471 _0425_
*472 _0426_
*473 _0427_
*474 _0428_
*475 _0429_
*476 _0430_
*477 _0431_
*478 _0432_
*479 _0433_
*480 _0434_
*481 _0435_
*482 _0436_
*483 _0437_
*484 _0438_
*485 _0439_
*486 _0440_
*487 _0441_
*488 _0442_
*489 _0443_
*490 _0444_
*491 _0445_
*492 _0446_
*493 _0447_
*494 _0448_
*495 _0449_
*496 _0450_
*497 _0451_
*498 _0452_
*499 _0453_
*500 _0454_
*501 _0455_
*502 _0456_
*503 _0457_
*504 _0458_
*505 _0459_
*506 _0460_
*507 _0461_
*508 _0462_
*509 _0463_
*510 _0464_
*511 _0465_
*512 _0466_
*513 _0467_
*514 _0468_
*515 _0469_
*516 _0470_
*517 _0471_
*518 _0472_
*519 _0473_
*520 _0474_
*521 _0475_
*522 _0476_
*523 _0477_
*524 _0478_
*525 _0479_
*526 _0480_
*527 _0481_
*528 _0482_
*529 _0483_
*530 _0484_
*531 _0485_
*532 _0486_
*533 _0487_
*534 _0488_
*535 _0489_
*536 _0490_
*537 _0491_
*538 _0492_
*539 _0493_
*540 _0494_
*541 _0495_
*542 clknet_0_clk
*543 clknet_4_0_0_clk
*544 clknet_4_10_0_clk
*545 clknet_4_11_0_clk
*546 clknet_4_12_0_clk
*547 clknet_4_13_0_clk
*548 clknet_4_14_0_clk
*549 clknet_4_15_0_clk
*550 clknet_4_1_0_clk
*551 clknet_4_2_0_clk
*552 clknet_4_3_0_clk
*553 clknet_4_4_0_clk
*554 clknet_4_5_0_clk
*555 clknet_4_6_0_clk
*556 clknet_4_7_0_clk
*557 clknet_4_8_0_clk
*558 clknet_4_9_0_clk
*559 fifo_inst\.almost_empty
*560 fifo_inst\.almost_full
*561 fifo_inst\.buffer\[0\]\[0\]
*562 fifo_inst\.buffer\[0\]\[1\]
*563 fifo_inst\.buffer\[0\]\[2\]
*564 fifo_inst\.buffer\[0\]\[3\]
*565 fifo_inst\.buffer\[0\]\[4\]
*566 fifo_inst\.buffer\[0\]\[5\]
*567 fifo_inst\.buffer\[0\]\[6\]
*568 fifo_inst\.buffer\[0\]\[7\]
*569 fifo_inst\.buffer\[10\]\[0\]
*570 fifo_inst\.buffer\[10\]\[1\]
*571 fifo_inst\.buffer\[10\]\[2\]
*572 fifo_inst\.buffer\[10\]\[3\]
*573 fifo_inst\.buffer\[10\]\[4\]
*574 fifo_inst\.buffer\[10\]\[5\]
*575 fifo_inst\.buffer\[10\]\[6\]
*576 fifo_inst\.buffer\[10\]\[7\]
*577 fifo_inst\.buffer\[11\]\[0\]
*578 fifo_inst\.buffer\[11\]\[1\]
*579 fifo_inst\.buffer\[11\]\[2\]
*580 fifo_inst\.buffer\[11\]\[3\]
*581 fifo_inst\.buffer\[11\]\[4\]
*582 fifo_inst\.buffer\[11\]\[5\]
*583 fifo_inst\.buffer\[11\]\[6\]
*584 fifo_inst\.buffer\[11\]\[7\]
*585 fifo_inst\.buffer\[12\]\[0\]
*586 fifo_inst\.buffer\[12\]\[1\]
*587 fifo_inst\.buffer\[12\]\[2\]
*588 fifo_inst\.buffer\[12\]\[3\]
*589 fifo_inst\.buffer\[12\]\[4\]
*590 fifo_inst\.buffer\[12\]\[5\]
*591 fifo_inst\.buffer\[12\]\[6\]
*592 fifo_inst\.buffer\[12\]\[7\]
*593 fifo_inst\.buffer\[13\]\[0\]
*594 fifo_inst\.buffer\[13\]\[1\]
*595 fifo_inst\.buffer\[13\]\[2\]
*596 fifo_inst\.buffer\[13\]\[3\]
*597 fifo_inst\.buffer\[13\]\[4\]
*598 fifo_inst\.buffer\[13\]\[5\]
*599 fifo_inst\.buffer\[13\]\[6\]
*600 fifo_inst\.buffer\[13\]\[7\]
*601 fifo_inst\.buffer\[14\]\[0\]
*602 fifo_inst\.buffer\[14\]\[1\]
*603 fifo_inst\.buffer\[14\]\[2\]
*604 fifo_inst\.buffer\[14\]\[3\]
*605 fifo_inst\.buffer\[14\]\[4\]
*606 fifo_inst\.buffer\[14\]\[5\]
*607 fifo_inst\.buffer\[14\]\[6\]
*608 fifo_inst\.buffer\[14\]\[7\]
*609 fifo_inst\.buffer\[15\]\[0\]
*610 fifo_inst\.buffer\[15\]\[1\]
*611 fifo_inst\.buffer\[15\]\[2\]
*612 fifo_inst\.buffer\[15\]\[3\]
*613 fifo_inst\.buffer\[15\]\[4\]
*614 fifo_inst\.buffer\[15\]\[5\]
*615 fifo_inst\.buffer\[15\]\[6\]
*616 fifo_inst\.buffer\[15\]\[7\]
*617 fifo_inst\.buffer\[1\]\[0\]
*618 fifo_inst\.buffer\[1\]\[1\]
*619 fifo_inst\.buffer\[1\]\[2\]
*620 fifo_inst\.buffer\[1\]\[3\]
*621 fifo_inst\.buffer\[1\]\[4\]
*622 fifo_inst\.buffer\[1\]\[5\]
*623 fifo_inst\.buffer\[1\]\[6\]
*624 fifo_inst\.buffer\[1\]\[7\]
*625 fifo_inst\.buffer\[2\]\[0\]
*626 fifo_inst\.buffer\[2\]\[1\]
*627 fifo_inst\.buffer\[2\]\[2\]
*628 fifo_inst\.buffer\[2\]\[3\]
*629 fifo_inst\.buffer\[2\]\[4\]
*630 fifo_inst\.buffer\[2\]\[5\]
*631 fifo_inst\.buffer\[2\]\[6\]
*632 fifo_inst\.buffer\[2\]\[7\]
*633 fifo_inst\.buffer\[3\]\[0\]
*634 fifo_inst\.buffer\[3\]\[1\]
*635 fifo_inst\.buffer\[3\]\[2\]
*636 fifo_inst\.buffer\[3\]\[3\]
*637 fifo_inst\.buffer\[3\]\[4\]
*638 fifo_inst\.buffer\[3\]\[5\]
*639 fifo_inst\.buffer\[3\]\[6\]
*640 fifo_inst\.buffer\[3\]\[7\]
*641 fifo_inst\.buffer\[4\]\[0\]
*642 fifo_inst\.buffer\[4\]\[1\]
*643 fifo_inst\.buffer\[4\]\[2\]
*644 fifo_inst\.buffer\[4\]\[3\]
*645 fifo_inst\.buffer\[4\]\[4\]
*646 fifo_inst\.buffer\[4\]\[5\]
*647 fifo_inst\.buffer\[4\]\[6\]
*648 fifo_inst\.buffer\[4\]\[7\]
*649 fifo_inst\.buffer\[5\]\[0\]
*650 fifo_inst\.buffer\[5\]\[1\]
*651 fifo_inst\.buffer\[5\]\[2\]
*652 fifo_inst\.buffer\[5\]\[3\]
*653 fifo_inst\.buffer\[5\]\[4\]
*654 fifo_inst\.buffer\[5\]\[5\]
*655 fifo_inst\.buffer\[5\]\[6\]
*656 fifo_inst\.buffer\[5\]\[7\]
*657 fifo_inst\.buffer\[6\]\[0\]
*658 fifo_inst\.buffer\[6\]\[1\]
*659 fifo_inst\.buffer\[6\]\[2\]
*660 fifo_inst\.buffer\[6\]\[3\]
*661 fifo_inst\.buffer\[6\]\[4\]
*662 fifo_inst\.buffer\[6\]\[5\]
*663 fifo_inst\.buffer\[6\]\[6\]
*664 fifo_inst\.buffer\[6\]\[7\]
*665 fifo_inst\.buffer\[7\]\[0\]
*666 fifo_inst\.buffer\[7\]\[1\]
*667 fifo_inst\.buffer\[7\]\[2\]
*668 fifo_inst\.buffer\[7\]\[3\]
*669 fifo_inst\.buffer\[7\]\[4\]
*670 fifo_inst\.buffer\[7\]\[5\]
*671 fifo_inst\.buffer\[7\]\[6\]
*672 fifo_inst\.buffer\[7\]\[7\]
*673 fifo_inst\.buffer\[8\]\[0\]
*674 fifo_inst\.buffer\[8\]\[1\]
*675 fifo_inst\.buffer\[8\]\[2\]
*676 fifo_inst\.buffer\[8\]\[3\]
*677 fifo_inst\.buffer\[8\]\[4\]
*678 fifo_inst\.buffer\[8\]\[5\]
*679 fifo_inst\.buffer\[8\]\[6\]
*680 fifo_inst\.buffer\[8\]\[7\]
*681 fifo_inst\.buffer\[9\]\[0\]
*682 fifo_inst\.buffer\[9\]\[1\]
*683 fifo_inst\.buffer\[9\]\[2\]
*684 fifo_inst\.buffer\[9\]\[3\]
*685 fifo_inst\.buffer\[9\]\[4\]
*686 fifo_inst\.buffer\[9\]\[5\]
*687 fifo_inst\.buffer\[9\]\[6\]
*688 fifo_inst\.buffer\[9\]\[7\]
*689 fifo_inst\.empty
*690 fifo_inst\.full
*691 fifo_inst\.head_idx\[0\]
*692 fifo_inst\.head_idx\[1\]
*693 fifo_inst\.head_idx\[2\]
*694 fifo_inst\.head_idx\[3\]
*695 fifo_inst\.overflow
*696 fifo_inst\.stored_items\[0\]
*697 fifo_inst\.stored_items\[1\]
*698 fifo_inst\.stored_items\[2\]
*699 fifo_inst\.stored_items\[3\]
*700 fifo_inst\.stored_items\[4\]
*701 fifo_inst\.tail_idx\[0\]
*702 fifo_inst\.tail_idx\[1\]
*703 fifo_inst\.tail_idx\[2\]
*704 fifo_inst\.tail_idx\[3\]
*705 fifo_inst\.underflow
*706 net1
*707 net10
*708 net100
*709 net101
*710 net102
*711 net103
*712 net104
*713 net105
*714 net106
*715 net107
*716 net108
*717 net109
*718 net11
*719 net110
*720 net111
*721 net112
*722 net113
*723 net114
*724 net115
*725 net116
*726 net117
*727 net118
*728 net119
*729 net12
*730 net120
*731 net121
*732 net122
*733 net123
*734 net124
*735 net125
*736 net126
*737 net127
*738 net128
*739 net129
*740 net130
*741 net131
*742 net132
*743 net133
*744 net134
*745 net135
*746 net136
*747 net137
*748 net138
*749 net139
*750 net140
*751 net141
*752 net142
*753 net143
*754 net144
*755 net145
*756 net146
*757 net147
*758 net148
*759 net149
*760 net150
*761 net151
*762 net2
*763 net23
*764 net24
*765 net25
*766 net26
*767 net27
*768 net28
*769 net29
*770 net3
*771 net30
*772 net31
*773 net32
*774 net33
*775 net34
*776 net35
*777 net36
*778 net37
*779 net38
*780 net39
*781 net4
*782 net40
*783 net41
*784 net42
*785 net43
*786 net44
*787 net45
*788 net46
*789 net47
*790 net48
*791 net49
*792 net5
*793 net50
*794 net51
*795 net52
*796 net53
*797 net54
*798 net55
*799 net56
*800 net57
*801 net58
*802 net59
*803 net6
*804 net60
*805 net61
*806 net62
*807 net63
*808 net64
*809 net65
*810 net66
*811 net67
*812 net68
*813 net69
*814 net7
*815 net70
*816 net71
*817 net72
*818 net73
*819 net74
*820 net75
*821 net76
*822 net77
*823 net78
*824 net79
*825 net8
*826 net80
*827 net81
*828 net82
*829 net83
*830 net84
*831 net85
*832 net86
*833 net87
*834 net88
*835 net89
*836 net9
*837 net90
*838 net91
*839 net92
*840 net93
*841 net94
*842 net95
*843 net96
*844 net97
*845 net98
*846 net99
*847 FILLER_0_0_109
*848 FILLER_0_0_113
*849 FILLER_0_0_125
*850 FILLER_0_0_137
*851 FILLER_0_0_141
*852 FILLER_0_0_15
*853 FILLER_0_0_153
*854 FILLER_0_0_165
*855 FILLER_0_0_169
*856 FILLER_0_0_181
*857 FILLER_0_0_193
*858 FILLER_0_0_197
*859 FILLER_0_0_209
*860 FILLER_0_0_221
*861 FILLER_0_0_225
*862 FILLER_0_0_237
*863 FILLER_0_0_249
*864 FILLER_0_0_253
*865 FILLER_0_0_265
*866 FILLER_0_0_27
*867 FILLER_0_0_277
*868 FILLER_0_0_281
*869 FILLER_0_0_29
*870 FILLER_0_0_293
*871 FILLER_0_0_3
*872 FILLER_0_0_305
*873 FILLER_0_0_309
*874 FILLER_0_0_321
*875 FILLER_0_0_333
*876 FILLER_0_0_337
*877 FILLER_0_0_349
*878 FILLER_0_0_41
*879 FILLER_0_0_53
*880 FILLER_0_0_57
*881 FILLER_0_0_69
*882 FILLER_0_0_81
*883 FILLER_0_0_85
*884 FILLER_0_0_97
*885 FILLER_0_10_103
*886 FILLER_0_10_133
*887 FILLER_0_10_141
*888 FILLER_0_10_15
*889 FILLER_0_10_168
*890 FILLER_0_10_192
*891 FILLER_0_10_21
*892 FILLER_0_10_223
*893 FILLER_0_10_227
*894 FILLER_0_10_249
*895 FILLER_0_10_261
*896 FILLER_0_10_269
*897 FILLER_0_10_27
*898 FILLER_0_10_29
*899 FILLER_0_10_3
*900 FILLER_0_10_303
*901 FILLER_0_10_307
*902 FILLER_0_10_309
*903 FILLER_0_10_315
*904 FILLER_0_10_332
*905 FILLER_0_10_340
*906 FILLER_0_10_41
*907 FILLER_0_10_53
*908 FILLER_0_10_65
*909 FILLER_0_10_77
*910 FILLER_0_10_83
*911 FILLER_0_10_85
*912 FILLER_0_11_107
*913 FILLER_0_11_11
*914 FILLER_0_11_111
*915 FILLER_0_11_143
*916 FILLER_0_11_162
*917 FILLER_0_11_169
*918 FILLER_0_11_177
*919 FILLER_0_11_214
*920 FILLER_0_11_222
*921 FILLER_0_11_225
*922 FILLER_0_11_231
*923 FILLER_0_11_248
*924 FILLER_0_11_252
*925 FILLER_0_11_261
*926 FILLER_0_11_281
*927 FILLER_0_11_3
*928 FILLER_0_11_30
*929 FILLER_0_11_315
*930 FILLER_0_11_345
*931 FILLER_0_11_66
*932 FILLER_0_11_78
*933 FILLER_0_11_83
*934 FILLER_0_12_119
*935 FILLER_0_12_144
*936 FILLER_0_12_162
*937 FILLER_0_12_174
*938 FILLER_0_12_194
*939 FILLER_0_12_217
*940 FILLER_0_12_251
*941 FILLER_0_12_262
*942 FILLER_0_12_266
*943 FILLER_0_12_29
*944 FILLER_0_12_297
*945 FILLER_0_12_3
*946 FILLER_0_12_305
*947 FILLER_0_12_309
*948 FILLER_0_12_327
*949 FILLER_0_12_346
*950 FILLER_0_12_350
*951 FILLER_0_12_62
*952 FILLER_0_13_121
*953 FILLER_0_13_133
*954 FILLER_0_13_164
*955 FILLER_0_13_169
*956 FILLER_0_13_197
*957 FILLER_0_13_205
*958 FILLER_0_13_217
*959 FILLER_0_13_223
*960 FILLER_0_13_233
*961 FILLER_0_13_260
*962 FILLER_0_13_268
*963 FILLER_0_13_3
*964 FILLER_0_13_306
*965 FILLER_0_13_33
*966 FILLER_0_13_345
*967 FILLER_0_13_57
*968 FILLER_0_13_61
*969 FILLER_0_13_70
*970 FILLER_0_14_102
*971 FILLER_0_14_114
*972 FILLER_0_14_120
*973 FILLER_0_14_128
*974 FILLER_0_14_139
*975 FILLER_0_14_15
*976 FILLER_0_14_166
*977 FILLER_0_14_174
*978 FILLER_0_14_19
*979 FILLER_0_14_232
*980 FILLER_0_14_236
*981 FILLER_0_14_240
*982 FILLER_0_14_253
*983 FILLER_0_14_265
*984 FILLER_0_14_277
*985 FILLER_0_14_297
*986 FILLER_0_14_3
*987 FILLER_0_14_305
*988 FILLER_0_14_309
*989 FILLER_0_14_346
*990 FILLER_0_14_350
*991 FILLER_0_14_40
*992 FILLER_0_14_50
*993 FILLER_0_14_68
*994 FILLER_0_14_76
*995 FILLER_0_14_82
*996 FILLER_0_15_103
*997 FILLER_0_15_111
*998 FILLER_0_15_113
*999 FILLER_0_15_125
*1000 FILLER_0_15_162
*1001 FILLER_0_15_177
*1002 FILLER_0_15_183
*1003 FILLER_0_15_214
*1004 FILLER_0_15_222
*1005 FILLER_0_15_233
*1006 FILLER_0_15_250
*1007 FILLER_0_15_262
*1008 FILLER_0_15_270
*1009 FILLER_0_15_274
*1010 FILLER_0_15_3
*1011 FILLER_0_15_305
*1012 FILLER_0_15_313
*1013 FILLER_0_15_333
*1014 FILLER_0_15_345
*1015 FILLER_0_15_49
*1016 FILLER_0_15_73
*1017 FILLER_0_16_108
*1018 FILLER_0_16_120
*1019 FILLER_0_16_160
*1020 FILLER_0_16_187
*1021 FILLER_0_16_195
*1022 FILLER_0_16_205
*1023 FILLER_0_16_212
*1024 FILLER_0_16_224
*1025 FILLER_0_16_250
*1026 FILLER_0_16_299
*1027 FILLER_0_16_3
*1028 FILLER_0_16_307
*1029 FILLER_0_16_309
*1030 FILLER_0_16_32
*1031 FILLER_0_16_339
*1032 FILLER_0_16_348
*1033 FILLER_0_16_57
*1034 FILLER_0_16_67
*1035 FILLER_0_16_85
*1036 FILLER_0_17_121
*1037 FILLER_0_17_141
*1038 FILLER_0_17_158
*1039 FILLER_0_17_193
*1040 FILLER_0_17_201
*1041 FILLER_0_17_218
*1042 FILLER_0_17_225
*1043 FILLER_0_17_3
*1044 FILLER_0_17_314
*1045 FILLER_0_17_335
*1046 FILLER_0_17_349
*1047 FILLER_0_17_37
*1048 FILLER_0_17_43
*1049 FILLER_0_17_53
*1050 FILLER_0_17_65
*1051 FILLER_0_18_11
*1052 FILLER_0_18_110
*1053 FILLER_0_18_118
*1054 FILLER_0_18_122
*1055 FILLER_0_18_134
*1056 FILLER_0_18_150
*1057 FILLER_0_18_156
*1058 FILLER_0_18_184
*1059 FILLER_0_18_213
*1060 FILLER_0_18_217
*1061 FILLER_0_18_237
*1062 FILLER_0_18_245
*1063 FILLER_0_18_250
*1064 FILLER_0_18_3
*1065 FILLER_0_18_319
*1066 FILLER_0_18_341
*1067 FILLER_0_18_38
*1068 FILLER_0_18_64
*1069 FILLER_0_19_109
*1070 FILLER_0_19_113
*1071 FILLER_0_19_137
*1072 FILLER_0_19_146
*1073 FILLER_0_19_166
*1074 FILLER_0_19_169
*1075 FILLER_0_19_173
*1076 FILLER_0_19_185
*1077 FILLER_0_19_191
*1078 FILLER_0_19_220
*1079 FILLER_0_19_225
*1080 FILLER_0_19_237
*1081 FILLER_0_19_3
*1082 FILLER_0_19_30
*1083 FILLER_0_19_308
*1084 FILLER_0_19_334
*1085 FILLER_0_19_34
*1086 FILLER_0_19_345
*1087 FILLER_0_19_91
*1088 FILLER_0_1_105
*1089 FILLER_0_1_111
*1090 FILLER_0_1_113
*1091 FILLER_0_1_125
*1092 FILLER_0_1_137
*1093 FILLER_0_1_149
*1094 FILLER_0_1_15
*1095 FILLER_0_1_161
*1096 FILLER_0_1_167
*1097 FILLER_0_1_169
*1098 FILLER_0_1_181
*1099 FILLER_0_1_193
*1100 FILLER_0_1_205
*1101 FILLER_0_1_217
*1102 FILLER_0_1_223
*1103 FILLER_0_1_225
*1104 FILLER_0_1_237
*1105 FILLER_0_1_249
*1106 FILLER_0_1_261
*1107 FILLER_0_1_27
*1108 FILLER_0_1_273
*1109 FILLER_0_1_279
*1110 FILLER_0_1_281
*1111 FILLER_0_1_293
*1112 FILLER_0_1_3
*1113 FILLER_0_1_305
*1114 FILLER_0_1_317
*1115 FILLER_0_1_329
*1116 FILLER_0_1_335
*1117 FILLER_0_1_337
*1118 FILLER_0_1_349
*1119 FILLER_0_1_39
*1120 FILLER_0_1_51
*1121 FILLER_0_1_55
*1122 FILLER_0_1_57
*1123 FILLER_0_1_69
*1124 FILLER_0_1_81
*1125 FILLER_0_1_93
*1126 FILLER_0_20_102
*1127 FILLER_0_20_110
*1128 FILLER_0_20_139
*1129 FILLER_0_20_149
*1130 FILLER_0_20_153
*1131 FILLER_0_20_178
*1132 FILLER_0_20_190
*1133 FILLER_0_20_197
*1134 FILLER_0_20_227
*1135 FILLER_0_20_234
*1136 FILLER_0_20_262
*1137 FILLER_0_20_272
*1138 FILLER_0_20_3
*1139 FILLER_0_20_302
*1140 FILLER_0_20_309
*1141 FILLER_0_20_339
*1142 FILLER_0_20_66
*1143 FILLER_0_20_78
*1144 FILLER_0_21_103
*1145 FILLER_0_21_11
*1146 FILLER_0_21_113
*1147 FILLER_0_21_131
*1148 FILLER_0_21_135
*1149 FILLER_0_21_145
*1150 FILLER_0_21_151
*1151 FILLER_0_21_17
*1152 FILLER_0_21_183
*1153 FILLER_0_21_192
*1154 FILLER_0_21_196
*1155 FILLER_0_21_206
*1156 FILLER_0_21_222
*1157 FILLER_0_21_225
*1158 FILLER_0_21_244
*1159 FILLER_0_21_273
*1160 FILLER_0_21_281
*1161 FILLER_0_21_29
*1162 FILLER_0_21_3
*1163 FILLER_0_21_307
*1164 FILLER_0_21_319
*1165 FILLER_0_21_337
*1166 FILLER_0_21_349
*1167 FILLER_0_21_55
*1168 FILLER_0_21_57
*1169 FILLER_0_21_68
*1170 FILLER_0_22_112
*1171 FILLER_0_22_136
*1172 FILLER_0_22_177
*1173 FILLER_0_22_187
*1174 FILLER_0_22_219
*1175 FILLER_0_22_231
*1176 FILLER_0_22_250
*1177 FILLER_0_22_253
*1178 FILLER_0_22_265
*1179 FILLER_0_22_277
*1180 FILLER_0_22_3
*1181 FILLER_0_22_309
*1182 FILLER_0_22_313
*1183 FILLER_0_22_53
*1184 FILLER_0_22_59
*1185 FILLER_0_23_105
*1186 FILLER_0_23_111
*1187 FILLER_0_23_113
*1188 FILLER_0_23_117
*1189 FILLER_0_23_145
*1190 FILLER_0_23_163
*1191 FILLER_0_23_167
*1192 FILLER_0_23_177
*1193 FILLER_0_23_222
*1194 FILLER_0_23_231
*1195 FILLER_0_23_250
*1196 FILLER_0_23_262
*1197 FILLER_0_23_266
*1198 FILLER_0_23_273
*1199 FILLER_0_23_277
*1200 FILLER_0_23_297
*1201 FILLER_0_23_3
*1202 FILLER_0_23_309
*1203 FILLER_0_23_313
*1204 FILLER_0_23_345
*1205 FILLER_0_23_54
*1206 FILLER_0_24_108
*1207 FILLER_0_24_11
*1208 FILLER_0_24_136
*1209 FILLER_0_24_147
*1210 FILLER_0_24_17
*1211 FILLER_0_24_175
*1212 FILLER_0_24_187
*1213 FILLER_0_24_191
*1214 FILLER_0_24_195
*1215 FILLER_0_24_197
*1216 FILLER_0_24_207
*1217 FILLER_0_24_212
*1218 FILLER_0_24_226
*1219 FILLER_0_24_250
*1220 FILLER_0_24_270
*1221 FILLER_0_24_29
*1222 FILLER_0_24_3
*1223 FILLER_0_24_306
*1224 FILLER_0_24_309
*1225 FILLER_0_24_313
*1226 FILLER_0_24_349
*1227 FILLER_0_24_55
*1228 FILLER_0_24_67
*1229 FILLER_0_24_71
*1230 FILLER_0_24_75
*1231 FILLER_0_24_79
*1232 FILLER_0_25_105
*1233 FILLER_0_25_113
*1234 FILLER_0_25_147
*1235 FILLER_0_25_15
*1236 FILLER_0_25_176
*1237 FILLER_0_25_184
*1238 FILLER_0_25_208
*1239 FILLER_0_25_213
*1240 FILLER_0_25_221
*1241 FILLER_0_25_229
*1242 FILLER_0_25_235
*1243 FILLER_0_25_262
*1244 FILLER_0_25_269
*1245 FILLER_0_25_278
*1246 FILLER_0_25_28
*1247 FILLER_0_25_290
*1248 FILLER_0_25_299
*1249 FILLER_0_25_3
*1250 FILLER_0_25_311
*1251 FILLER_0_25_337
*1252 FILLER_0_25_347
*1253 FILLER_0_25_39
*1254 FILLER_0_25_45
*1255 FILLER_0_25_54
*1256 FILLER_0_25_57
*1257 FILLER_0_25_69
*1258 FILLER_0_25_75
*1259 FILLER_0_26_107
*1260 FILLER_0_26_119
*1261 FILLER_0_26_183
*1262 FILLER_0_26_195
*1263 FILLER_0_26_223
*1264 FILLER_0_26_231
*1265 FILLER_0_26_24
*1266 FILLER_0_26_243
*1267 FILLER_0_26_251
*1268 FILLER_0_26_253
*1269 FILLER_0_26_261
*1270 FILLER_0_26_284
*1271 FILLER_0_26_29
*1272 FILLER_0_26_3
*1273 FILLER_0_26_301
*1274 FILLER_0_26_337
*1275 FILLER_0_26_347
*1276 FILLER_0_26_60
*1277 FILLER_0_26_66
*1278 FILLER_0_26_7
*1279 FILLER_0_26_85
*1280 FILLER_0_27_110
*1281 FILLER_0_27_130
*1282 FILLER_0_27_177
*1283 FILLER_0_27_183
*1284 FILLER_0_27_195
*1285 FILLER_0_27_201
*1286 FILLER_0_27_238
*1287 FILLER_0_27_250
*1288 FILLER_0_27_29
*1289 FILLER_0_27_3
*1290 FILLER_0_27_350
*1291 FILLER_0_27_52
*1292 FILLER_0_27_57
*1293 FILLER_0_27_77
*1294 FILLER_0_27_97
*1295 FILLER_0_28_11
*1296 FILLER_0_28_123
*1297 FILLER_0_28_135
*1298 FILLER_0_28_139
*1299 FILLER_0_28_17
*1300 FILLER_0_28_170
*1301 FILLER_0_28_182
*1302 FILLER_0_28_194
*1303 FILLER_0_28_197
*1304 FILLER_0_28_209
*1305 FILLER_0_28_221
*1306 FILLER_0_28_234
*1307 FILLER_0_28_246
*1308 FILLER_0_28_253
*1309 FILLER_0_28_297
*1310 FILLER_0_28_3
*1311 FILLER_0_28_305
*1312 FILLER_0_28_346
*1313 FILLER_0_28_350
*1314 FILLER_0_28_56
*1315 FILLER_0_28_62
*1316 FILLER_0_28_69
*1317 FILLER_0_28_73
*1318 FILLER_0_28_82
*1319 FILLER_0_29_118
*1320 FILLER_0_29_129
*1321 FILLER_0_29_141
*1322 FILLER_0_29_15
*1323 FILLER_0_29_167
*1324 FILLER_0_29_169
*1325 FILLER_0_29_181
*1326 FILLER_0_29_193
*1327 FILLER_0_29_202
*1328 FILLER_0_29_214
*1329 FILLER_0_29_222
*1330 FILLER_0_29_23
*1331 FILLER_0_29_240
*1332 FILLER_0_29_248
*1333 FILLER_0_29_277
*1334 FILLER_0_29_281
*1335 FILLER_0_29_296
*1336 FILLER_0_29_3
*1337 FILLER_0_29_302
*1338 FILLER_0_29_334
*1339 FILLER_0_29_349
*1340 FILLER_0_29_40
*1341 FILLER_0_29_52
*1342 FILLER_0_29_60
*1343 FILLER_0_29_64
*1344 FILLER_0_29_69
*1345 FILLER_0_29_81
*1346 FILLER_0_29_91
*1347 FILLER_0_2_109
*1348 FILLER_0_2_121
*1349 FILLER_0_2_133
*1350 FILLER_0_2_139
*1351 FILLER_0_2_141
*1352 FILLER_0_2_15
*1353 FILLER_0_2_153
*1354 FILLER_0_2_165
*1355 FILLER_0_2_177
*1356 FILLER_0_2_189
*1357 FILLER_0_2_195
*1358 FILLER_0_2_197
*1359 FILLER_0_2_209
*1360 FILLER_0_2_221
*1361 FILLER_0_2_233
*1362 FILLER_0_2_245
*1363 FILLER_0_2_251
*1364 FILLER_0_2_253
*1365 FILLER_0_2_265
*1366 FILLER_0_2_27
*1367 FILLER_0_2_277
*1368 FILLER_0_2_289
*1369 FILLER_0_2_29
*1370 FILLER_0_2_3
*1371 FILLER_0_2_301
*1372 FILLER_0_2_307
*1373 FILLER_0_2_309
*1374 FILLER_0_2_321
*1375 FILLER_0_2_333
*1376 FILLER_0_2_345
*1377 FILLER_0_2_41
*1378 FILLER_0_2_53
*1379 FILLER_0_2_65
*1380 FILLER_0_2_77
*1381 FILLER_0_2_83
*1382 FILLER_0_2_85
*1383 FILLER_0_2_97
*1384 FILLER_0_30_110
*1385 FILLER_0_30_117
*1386 FILLER_0_30_134
*1387 FILLER_0_30_141
*1388 FILLER_0_30_15
*1389 FILLER_0_30_166
*1390 FILLER_0_30_178
*1391 FILLER_0_30_187
*1392 FILLER_0_30_193
*1393 FILLER_0_30_206
*1394 FILLER_0_30_212
*1395 FILLER_0_30_244
*1396 FILLER_0_30_248
*1397 FILLER_0_30_27
*1398 FILLER_0_30_286
*1399 FILLER_0_30_29
*1400 FILLER_0_30_298
*1401 FILLER_0_30_3
*1402 FILLER_0_30_325
*1403 FILLER_0_30_41
*1404 FILLER_0_30_49
*1405 FILLER_0_30_69
*1406 FILLER_0_30_81
*1407 FILLER_0_30_85
*1408 FILLER_0_30_93
*1409 FILLER_0_31_123
*1410 FILLER_0_31_15
*1411 FILLER_0_31_177
*1412 FILLER_0_31_204
*1413 FILLER_0_31_240
*1414 FILLER_0_31_252
*1415 FILLER_0_31_264
*1416 FILLER_0_31_27
*1417 FILLER_0_31_270
*1418 FILLER_0_31_3
*1419 FILLER_0_31_334
*1420 FILLER_0_31_346
*1421 FILLER_0_31_350
*1422 FILLER_0_31_39
*1423 FILLER_0_31_47
*1424 FILLER_0_31_73
*1425 FILLER_0_31_85
*1426 FILLER_0_32_118
*1427 FILLER_0_32_130
*1428 FILLER_0_32_15
*1429 FILLER_0_32_214
*1430 FILLER_0_32_222
*1431 FILLER_0_32_240
*1432 FILLER_0_32_246
*1433 FILLER_0_32_250
*1434 FILLER_0_32_253
*1435 FILLER_0_32_265
*1436 FILLER_0_32_27
*1437 FILLER_0_32_29
*1438 FILLER_0_32_3
*1439 FILLER_0_32_304
*1440 FILLER_0_32_327
*1441 FILLER_0_32_348
*1442 FILLER_0_32_41
*1443 FILLER_0_32_53
*1444 FILLER_0_32_63
*1445 FILLER_0_32_80
*1446 FILLER_0_32_85
*1447 FILLER_0_32_93
*1448 FILLER_0_33_102
*1449 FILLER_0_33_108
*1450 FILLER_0_33_113
*1451 FILLER_0_33_125
*1452 FILLER_0_33_137
*1453 FILLER_0_33_15
*1454 FILLER_0_33_161
*1455 FILLER_0_33_167
*1456 FILLER_0_33_169
*1457 FILLER_0_33_181
*1458 FILLER_0_33_204
*1459 FILLER_0_33_215
*1460 FILLER_0_33_237
*1461 FILLER_0_33_27
*1462 FILLER_0_33_279
*1463 FILLER_0_33_298
*1464 FILLER_0_33_3
*1465 FILLER_0_33_306
*1466 FILLER_0_33_346
*1467 FILLER_0_33_350
*1468 FILLER_0_33_39
*1469 FILLER_0_33_51
*1470 FILLER_0_33_55
*1471 FILLER_0_33_57
*1472 FILLER_0_33_78
*1473 FILLER_0_33_90
*1474 FILLER_0_33_98
*1475 FILLER_0_34_109
*1476 FILLER_0_34_121
*1477 FILLER_0_34_133
*1478 FILLER_0_34_139
*1479 FILLER_0_34_141
*1480 FILLER_0_34_15
*1481 FILLER_0_34_172
*1482 FILLER_0_34_184
*1483 FILLER_0_34_188
*1484 FILLER_0_34_195
*1485 FILLER_0_34_206
*1486 FILLER_0_34_218
*1487 FILLER_0_34_230
*1488 FILLER_0_34_242
*1489 FILLER_0_34_248
*1490 FILLER_0_34_27
*1491 FILLER_0_34_279
*1492 FILLER_0_34_29
*1493 FILLER_0_34_290
*1494 FILLER_0_34_3
*1495 FILLER_0_34_302
*1496 FILLER_0_34_309
*1497 FILLER_0_34_345
*1498 FILLER_0_34_41
*1499 FILLER_0_34_53
*1500 FILLER_0_34_65
*1501 FILLER_0_34_80
*1502 FILLER_0_34_85
*1503 FILLER_0_34_97
*1504 FILLER_0_35_104
*1505 FILLER_0_35_111
*1506 FILLER_0_35_124
*1507 FILLER_0_35_130
*1508 FILLER_0_35_142
*1509 FILLER_0_35_15
*1510 FILLER_0_35_165
*1511 FILLER_0_35_177
*1512 FILLER_0_35_223
*1513 FILLER_0_35_234
*1514 FILLER_0_35_246
*1515 FILLER_0_35_27
*1516 FILLER_0_35_275
*1517 FILLER_0_35_281
*1518 FILLER_0_35_292
*1519 FILLER_0_35_3
*1520 FILLER_0_35_321
*1521 FILLER_0_35_348
*1522 FILLER_0_35_39
*1523 FILLER_0_35_47
*1524 FILLER_0_35_57
*1525 FILLER_0_35_73
*1526 FILLER_0_35_97
*1527 FILLER_0_36_137
*1528 FILLER_0_36_141
*1529 FILLER_0_36_15
*1530 FILLER_0_36_178
*1531 FILLER_0_36_197
*1532 FILLER_0_36_209
*1533 FILLER_0_36_229
*1534 FILLER_0_36_241
*1535 FILLER_0_36_245
*1536 FILLER_0_36_251
*1537 FILLER_0_36_262
*1538 FILLER_0_36_27
*1539 FILLER_0_36_272
*1540 FILLER_0_36_29
*1541 FILLER_0_36_3
*1542 FILLER_0_36_302
*1543 FILLER_0_36_341
*1544 FILLER_0_36_83
*1545 FILLER_0_36_85
*1546 FILLER_0_36_94
*1547 FILLER_0_37_104
*1548 FILLER_0_37_111
*1549 FILLER_0_37_123
*1550 FILLER_0_37_130
*1551 FILLER_0_37_15
*1552 FILLER_0_37_169
*1553 FILLER_0_37_177
*1554 FILLER_0_37_204
*1555 FILLER_0_37_222
*1556 FILLER_0_37_244
*1557 FILLER_0_37_27
*1558 FILLER_0_37_297
*1559 FILLER_0_37_3
*1560 FILLER_0_37_324
*1561 FILLER_0_37_334
*1562 FILLER_0_37_39
*1563 FILLER_0_37_47
*1564 FILLER_0_37_57
*1565 FILLER_0_37_74
*1566 FILLER_0_37_82
*1567 FILLER_0_37_94
*1568 FILLER_0_37_99
*1569 FILLER_0_38_100
*1570 FILLER_0_38_113
*1571 FILLER_0_38_124
*1572 FILLER_0_38_128
*1573 FILLER_0_38_14
*1574 FILLER_0_38_141
*1575 FILLER_0_38_153
*1576 FILLER_0_38_165
*1577 FILLER_0_38_169
*1578 FILLER_0_38_18
*1579 FILLER_0_38_181
*1580 FILLER_0_38_187
*1581 FILLER_0_38_191
*1582 FILLER_0_38_195
*1583 FILLER_0_38_197
*1584 FILLER_0_38_207
*1585 FILLER_0_38_214
*1586 FILLER_0_38_22
*1587 FILLER_0_38_222
*1588 FILLER_0_38_242
*1589 FILLER_0_38_250
*1590 FILLER_0_38_253
*1591 FILLER_0_38_270
*1592 FILLER_0_38_285
*1593 FILLER_0_38_3
*1594 FILLER_0_38_32
*1595 FILLER_0_38_38
*1596 FILLER_0_38_42
*1597 FILLER_0_38_46
*1598 FILLER_0_38_50
*1599 FILLER_0_38_54
*1600 FILLER_0_38_57
*1601 FILLER_0_38_62
*1602 FILLER_0_38_66
*1603 FILLER_0_38_70
*1604 FILLER_0_38_74
*1605 FILLER_0_38_78
*1606 FILLER_0_38_88
*1607 FILLER_0_3_105
*1608 FILLER_0_3_111
*1609 FILLER_0_3_113
*1610 FILLER_0_3_125
*1611 FILLER_0_3_137
*1612 FILLER_0_3_149
*1613 FILLER_0_3_15
*1614 FILLER_0_3_161
*1615 FILLER_0_3_167
*1616 FILLER_0_3_169
*1617 FILLER_0_3_181
*1618 FILLER_0_3_193
*1619 FILLER_0_3_205