*SPEF "ieee 1481-1999"
*DESIGN "tt_um_fir_top"
*DATE "11:11:11 Fri 11 11, 1111"
*VENDOR "OpenRCX"
*PROGRAM "Parallel Extraction"
*VERSION "1.0"
*DESIGN_FLOW "NAME_SCOPE LOCAL" "PIN_CAP NONE"
*DIVIDER /
*DELIMITER :
*BUS_DELIMITER []
*T_UNIT 1 NS
*C_UNIT 1 PF
*R_UNIT 1 OHM
*L_UNIT 1 HENRY

*NAME_MAP
*3 clk
*4 ena
*5 rst_n
*6 ui_in[0]
*7 ui_in[1]
*8 ui_in[2]
*9 ui_in[3]
*10 ui_in[4]
*11 ui_in[5]
*12 ui_in[6]
*13 ui_in[7]
*14 uio_in[0]
*15 uio_in[1]
*16 uio_in[2]
*17 uio_in[3]
*18 uio_in[4]
*19 uio_in[5]
*20 uio_in[6]
*21 uio_in[7]
*22 net19
*23 net20
*24 net21
*25 net22
*26 net23
*27 net24
*28 net25
*29 net26
*30 uio_out[0]
*31 uio_out[1]
*32 uio_out[2]
*33 uio_out[3]
*34 uio_out[4]
*35 uio_out[5]
*36 uio_out[6]
*37 uio_out[7]
*38 uo_out[0]
*39 uo_out[1]
*40 uo_out[2]
*41 uo_out[3]
*42 uo_out[4]
*43 uo_out[5]
*44 uo_out[6]
*45 net27
*46 _0000_
*47 _0001_
*48 _0002_
*49 _0003_
*50 _0004_
*51 _0005_
*52 _0006_
*53 _0007_
*54 _0008_
*55 _0009_
*56 _0010_
*57 _0011_
*58 _0012_
*59 _0013_
*60 _0014_
*61 _0015_
*62 _0016_
*63 _0017_
*64 _0018_
*65 _0019_
*66 _0020_
*67 _0021_
*68 _0022_
*69 _0023_
*70 _0024_
*71 _0025_
*72 _0026_
*73 _0027_
*74 _0028_
*75 _0029_
*76 _0030_
*77 _0031_
*78 _0032_
*79 _0033_
*80 _0034_
*81 _0035_
*82 _0036_
*83 _0037_
*84 _0038_
*85 _0039_
*86 _0040_
*87 _0041_
*88 _0042_
*89 _0043_
*90 _0044_
*91 _0045_
*92 _0046_
*93 _0047_
*94 _0048_
*95 _0049_
*96 _0050_
*97 _0051_
*98 _0052_
*99 _0053_
*100 _0054_
*101 _0055_
*102 _0056_
*103 _0057_
*104 _0058_
*105 _0059_
*106 _0060_
*107 _0061_
*108 _0062_
*109 _0063_
*110 _0064_
*111 _0065_
*112 _0066_
*113 _0067_
*114 _0068_
*115 _0069_
*116 _0070_
*117 _0071_
*118 _0072_
*119 _0073_
*120 _0074_
*121 _0075_
*122 _0076_
*123 _0077_
*124 _0078_
*125 _0079_
*126 _0080_
*127 _0081_
*128 _0082_
*129 _0083_
*130 _0084_
*131 _0085_
*132 _0086_
*133 _0087_
*134 _0088_
*135 _0089_
*136 _0090_
*137 _0091_
*138 _0092_
*139 _0093_
*140 _0094_
*141 _0095_
*142 _0096_
*143 _0097_
*144 _0098_
*145 _0099_
*146 _0100_
*147 _0101_
*148 _0102_
*149 _0103_
*150 _0104_
*151 _0105_
*152 _0106_
*153 _0107_
*154 _0108_
*155 _0109_
*156 _0110_
*157 _0111_
*158 _0112_
*159 _0113_
*160 _0114_
*161 _0115_
*162 _0116_
*163 _0117_
*164 _0118_
*165 _0119_
*166 _0120_
*167 _0121_
*168 _0122_
*169 _0123_
*170 _0124_
*171 _0125_
*172 _0126_
*173 _0127_
*174 _0128_
*175 _0129_
*176 _0130_
*177 _0131_
*178 _0132_
*179 _0133_
*180 _0134_
*181 _0135_
*182 _0136_
*183 _0137_
*184 _0138_
*185 _0139_
*186 _0140_
*187 _0141_
*188 _0142_
*189 _0143_
*190 _0144_
*191 _0145_
*192 _0146_
*193 _0147_
*194 _0148_
*195 _0149_
*196 _0150_
*197 _0151_
*198 _0152_
*199 _0153_
*200 _0154_
*201 _0155_
*202 _0156_
*203 _0157_
*204 _0158_
*205 _0159_
*206 _0160_
*207 _0161_
*208 _0162_
*209 _0163_
*210 _0164_
*211 _0165_
*212 _0166_
*213 _0167_
*214 _0168_
*215 _0169_
*216 _0170_
*217 _0171_
*218 _0172_
*219 _0173_
*220 _0174_
*221 _0175_
*222 _0176_
*223 _0177_
*224 _0178_
*225 _0179_
*226 _0180_
*227 _0181_
*228 _0182_
*229 _0183_
*230 _0184_
*231 _0185_
*232 _0186_
*233 _0187_
*234 _0188_
*235 _0189_
*236 _0190_
*237 _0191_
*238 _0192_
*239 _0193_
*240 _0194_
*241 _0195_
*242 _0196_
*243 _0197_
*244 _0198_
*245 _0199_
*246 _0200_
*247 _0201_
*248 _0202_
*249 _0203_
*250 _0204_
*251 _0205_
*252 _0206_
*253 _0207_
*254 _0208_
*255 _0209_
*256 _0210_
*257 _0211_
*258 _0212_
*259 _0213_
*260 _0214_
*261 _0215_
*262 _0216_
*263 _0217_
*264 _0218_
*265 _0219_
*266 _0220_
*267 _0221_
*268 _0222_
*269 _0223_
*270 _0224_
*271 _0225_
*272 _0226_
*273 _0227_
*274 _0228_
*275 _0229_
*276 _0230_
*277 _0231_
*278 _0232_
*279 _0233_
*280 _0234_
*281 _0235_
*282 _0236_
*283 _0237_
*284 _0238_
*285 _0239_
*286 _0240_
*287 _0241_
*288 _0242_
*289 _0243_
*290 _0244_
*291 _0245_
*292 _0246_
*293 _0247_
*294 _0248_
*295 _0249_
*296 _0250_
*297 _0251_
*298 _0252_
*299 _0253_
*300 _0254_
*301 _0255_
*302 _0256_
*303 _0257_
*304 _0258_
*305 _0259_
*306 _0260_
*307 _0261_
*308 _0262_
*309 _0263_
*310 _0264_
*311 _0265_
*312 _0266_
*313 _0267_
*314 _0268_
*315 _0269_
*316 _0270_
*317 _0271_
*318 _0272_
*319 _0273_
*320 _0274_
*321 _0275_
*322 _0276_
*323 _0277_
*324 _0278_
*325 _0279_
*326 _0280_
*327 _0281_
*328 _0282_
*329 _0283_
*330 _0284_
*331 _0285_
*332 _0286_
*333 _0287_
*334 _0288_
*335 _0289_
*336 _0290_
*337 _0291_
*338 _0292_
*339 _0293_
*340 _0294_
*341 _0295_
*342 _0296_
*343 _0297_
*344 _0298_
*345 _0299_
*346 _0300_
*347 _0301_
*348 _0302_
*349 _0303_
*350 _0304_
*351 _0305_
*352 _0306_
*353 _0307_
*354 _0308_
*355 _0309_
*356 _0310_
*357 _0311_
*358 _0312_
*359 _0313_
*360 _0314_
*361 _0315_
*362 _0316_
*363 _0317_
*364 _0318_
*365 _0319_
*366 _0320_
*367 _0321_
*368 _0322_
*369 _0323_
*370 _0324_
*371 _0325_
*372 _0326_
*373 _0327_
*374 _0328_
*375 _0329_
*376 _0330_
*377 _0331_
*378 _0332_
*379 _0333_
*380 _0334_
*381 _0335_
*382 _0336_
*383 _0337_
*384 _0338_
*385 _0339_
*386 _0340_
*387 _0341_
*388 _0342_
*389 _0343_
*390 _0344_
*391 _0345_
*392 _0346_
*393 _0347_
*394 _0348_
*395 _0349_
*396 _0350_
*397 _0351_
*398 _0352_
*399 _0353_
*400 _0354_
*401 _0355_
*402 _0356_
*403 _0357_
*404 _0358_
*405 _0359_
*406 _0360_
*407 _0361_
*408 _0362_
*409 _0363_
*410 _0364_
*411 _0365_
*412 _0366_
*413 _0367_
*414 _0368_
*415 _0369_
*416 _0370_
*417 _0371_
*418 _0372_
*419 _0373_
*420 _0374_
*421 _0375_
*422 _0376_
*423 _0377_
*424 _0378_
*425 _0379_
*426 _0380_
*427 _0381_
*428 _0382_
*429 _0383_
*430 _0384_
*431 _0385_
*432 _0386_
*433 _0387_
*434 _0388_
*435 _0389_
*436 _0390_
*437 _0391_
*438 _0392_
*439 _0393_
*440 _0394_
*441 _0395_
*442 _0396_
*443 _0397_
*444 _0398_
*445 _0399_
*446 _0400_
*447 _0401_
*448 _0402_
*449 _0403_
*450 _0404_
*451 _0405_
*452 _0406_
*453 _0407_
*454 _0408_
*455 _0409_
*456 _0410_
*457 _0411_
*458 _0412_
*459 _0413_
*460 _0414_
*461 _0415_
*462 _0416_
*463 _0417_
*464 _0418_
*465 _0419_
*466 _0420_
*467 _0421_
*468 _0422_
*469 _0423_
*470 _0424_
*471 _0425_
*472 _0426_
*473 _0427_
*474 _0428_
*475 _0429_
*476 _0430_
*477 _0431_
*478 _0432_
*479 _0433_
*480 _0434_
*481 _0435_
*482 _0436_
*483 _0437_
*484 _0438_
*485 _0439_
*486 _0440_
*487 _0441_
*488 _0442_
*489 _0443_
*490 _0444_
*491 _0445_
*492 _0446_
*493 _0447_
*494 _0448_
*495 _0449_
*496 _0450_
*497 _0451_
*498 _0452_
*499 _0453_
*500 _0454_
*501 _0455_
*502 _0456_
*503 _0457_
*504 _0458_
*505 _0459_
*506 _0460_
*507 _0461_
*508 _0462_
*509 _0463_
*510 _0464_
*511 _0465_
*512 _0466_
*513 _0467_
*514 _0468_
*515 _0469_
*516 _0470_
*517 _0471_
*518 _0472_
*519 _0473_
*520 _0474_
*521 _0475_
*522 _0476_
*523 _0477_
*524 _0478_
*525 _0479_
*526 _0480_
*527 _0481_
*528 _0482_
*529 _0483_
*530 _0484_
*531 _0485_
*532 _0486_
*533 _0487_
*534 _0488_
*535 _0489_
*536 _0490_
*537 _0491_
*538 _0492_
*539 _0493_
*540 _0494_
*541 _0495_
*542 _0496_
*543 _0497_
*544 _0498_
*545 _0499_
*546 _0500_
*547 _0501_
*548 _0502_
*549 _0503_
*550 _0504_
*551 _0505_
*552 _0506_
*553 _0507_
*554 _0508_
*555 _0509_
*556 _0510_
*557 _0511_
*558 _0512_
*559 _0513_
*560 _0514_
*561 _0515_
*562 _0516_
*563 _0517_
*564 _0518_
*565 _0519_
*566 _0520_
*567 _0521_
*568 _0522_
*569 _0523_
*570 _0524_
*571 _0525_
*572 _0526_
*573 _0527_
*574 _0528_
*575 _0529_
*576 _0530_
*577 _0531_
*578 _0532_
*579 _0533_
*580 _0534_
*581 _0535_
*582 _0536_
*583 _0537_
*584 _0538_
*585 _0539_
*586 _0540_
*587 _0541_
*588 _0542_
*589 _0543_
*590 _0544_
*591 _0545_
*592 _0546_
*593 _0547_
*594 _0548_
*595 _0549_
*596 _0550_
*597 _0551_
*598 _0552_
*599 _0553_
*600 _0554_
*601 _0555_
*602 _0556_
*603 _0557_
*604 _0558_
*605 _0559_
*606 _0560_
*607 _0561_
*608 _0562_
*609 _0563_
*610 _0564_
*611 _0565_
*612 _0566_
*613 _0567_
*614 _0568_
*615 _0569_
*616 _0570_
*617 _0571_
*618 _0572_
*619 _0573_
*620 _0574_
*621 _0575_
*622 _0576_
*623 _0577_
*624 _0578_
*625 _0579_
*626 _0580_
*627 _0581_
*628 _0582_
*629 _0583_
*630 _0584_
*631 _0585_
*632 _0586_
*633 _0587_
*634 _0588_
*635 _0589_
*636 _0590_
*637 _0591_
*638 _0592_
*639 _0593_
*640 _0594_
*641 _0595_
*642 _0596_
*643 _0597_
*644 _0598_
*645 _0599_
*646 _0600_
*647 _0601_
*648 _0602_
*649 _0603_
*650 _0604_
*651 _0605_
*652 _0606_
*653 _0607_
*654 _0608_
*655 _0609_
*656 _0610_
*657 _0611_
*658 _0612_
*659 _0613_
*660 _0614_
*661 _0615_
*662 _0616_
*663 _0617_
*664 _0618_
*665 _0619_
*666 _0620_
*667 _0621_
*668 _0622_
*669 _0623_
*670 _0624_
*671 _0625_
*672 _0626_
*673 _0627_
*674 _0628_
*675 _0629_
*676 _0630_
*677 _0631_
*678 _0632_
*679 _0633_
*680 _0634_
*681 _0635_
*682 _0636_
*683 _0637_
*684 _0638_
*685 _0639_
*686 _0640_
*687 _0641_
*688 _0642_
*689 _0643_
*690 _0644_
*691 _0645_
*692 _0646_
*693 _0647_
*694 _0648_
*695 _0649_
*696 _0650_
*697 _0651_
*698 _0652_
*699 _0653_
*700 _0654_
*701 _0655_
*702 _0656_
*703 _0657_
*704 _0658_
*705 _0659_
*706 _0660_
*707 _0661_
*708 _0662_
*709 _0663_
*710 _0664_
*711 _0665_
*712 _0666_
*713 _0667_
*714 _0668_
*715 _0669_
*716 _0670_
*717 _0671_
*718 _0672_
*719 _0673_
*720 _0674_
*721 _0675_
*722 _0676_
*723 _0677_
*724 _0678_
*725 _0679_
*726 _0680_
*727 _0681_
*728 _0682_
*729 _0683_
*730 _0684_
*731 _0685_
*732 _0686_
*733 _0687_
*734 _0688_
*735 _0689_
*736 _0690_
*737 _0691_
*738 _0692_
*739 _0693_
*740 _0694_
*741 _0695_
*742 _0696_
*743 _0697_
*744 _0698_
*745 _0699_
*746 _0700_
*747 _0701_
*748 _0702_
*749 _0703_
*750 _0704_
*751 _0705_
*752 _0706_
*753 _0707_
*754 _0708_
*755 _0709_
*756 _0710_
*757 _0711_
*758 _0712_
*759 _0713_
*760 _0714_
*761 _0715_
*762 _0716_
*763 _0717_
*764 _0718_
*765 _0719_
*766 _0720_
*767 _0721_
*768 _0722_
*769 _0723_
*770 _0724_
*771 _0725_
*772 _0726_
*773 _0727_
*774 _0728_
*775 _0729_
*776 _0730_
*777 _0731_
*778 _0732_
*779 _0733_
*780 _0734_
*781 _0735_
*782 _0736_
*783 _0737_
*784 _0738_
*785 _0739_
*786 _0740_
*787 _0741_
*788 _0742_
*789 _0743_
*790 _0744_
*791 _0745_
*792 _0746_
*793 _0747_
*794 _0748_
*795 _0749_
*796 _0750_
*797 _0751_
*798 _0752_
*799 _0753_
*800 _0754_
*801 _0755_
*802 _0756_
*803 _0757_
*804 _0758_
*805 _0759_
*806 _0760_
*807 _0761_
*808 _0762_
*809 _0763_
*810 _0764_
*811 _0765_
*812 _0766_
*813 _0767_
*814 _0768_
*815 _0769_
*816 _0770_
*817 _0771_
*818 _0772_
*819 _0773_
*820 _0774_
*821 _0775_
*822 _0776_
*823 _0777_
*824 _0778_
*825 _0779_
*826 _0780_
*827 _0781_
*828 _0782_
*829 _0783_
*830 _0784_
*831 _0785_
*832 _0786_
*833 _0787_
*834 _0788_
*835 _0789_
*836 _0790_
*837 _0791_
*838 _0792_
*839 _0793_
*840 _0794_
*841 _0795_
*842 _0796_
*843 _0797_
*844 _0798_
*845 _0799_
*846 _0800_
*847 _0801_
*848 _0802_
*849 _0803_
*850 _0804_
*851 _0805_
*852 _0806_
*853 _0807_
*854 _0808_
*855 _0809_
*856 _0810_
*857 _0811_
*858 _0812_
*859 _0813_
*860 _0814_
*861 _0815_
*862 _0816_
*863 _0817_
*864 _0818_
*865 _0819_
*866 _0820_
*867 _0821_
*868 _0822_
*869 _0823_
*870 _0824_
*871 _0825_
*872 _0826_
*873 _0827_
*874 _0828_
*875 _0829_
*876 _0830_
*877 _0831_
*878 _0832_
*879 _0833_
*880 _0834_
*881 _0835_
*882 _0836_
*883 _0837_
*884 _0838_
*885 _0839_
*886 _0840_
*887 _0841_
*888 _0842_
*889 _0843_
*890 _0844_
*891 _0845_
*892 _0846_
*893 cfs1\.out\[0\]
*894 cfs1\.out\[10\]
*895 cfs1\.out\[11\]
*896 cfs1\.out\[12\]
*897 cfs1\.out\[13\]
*898 cfs1\.out\[14\]
*899 cfs1\.out\[15\]
*900 cfs1\.out\[16\]
*901 cfs1\.out\[17\]
*902 cfs1\.out\[18\]
*903 cfs1\.out\[19\]
*904 cfs1\.out\[1\]
*905 cfs1\.out\[20\]
*906 cfs1\.out\[21\]
*907 cfs1\.out\[22\]
*908 cfs1\.out\[23\]
*909 cfs1\.out\[24\]
*910 cfs1\.out\[25\]
*911 cfs1\.out\[26\]
*912 cfs1\.out\[27\]
*913 cfs1\.out\[28\]
*914 cfs1\.out\[29\]
*915 cfs1\.out\[2\]
*916 cfs1\.out\[30\]
*917 cfs1\.out\[31\]
*918 cfs1\.out\[3\]
*919 cfs1\.out\[4\]
*920 cfs1\.out\[5\]
*921 cfs1\.out\[6\]
*922 cfs1\.out\[7\]
*923 cfs1\.out\[8\]
*924 cfs1\.out\[9\]
*925 clknet_0_clk
*926 clknet_3_0__leaf_clk
*927 clknet_3_1__leaf_clk
*928 clknet_3_2__leaf_clk
*929 clknet_3_3__leaf_clk
*930 clknet_3_4__leaf_clk
*931 clknet_3_5__leaf_clk
*932 clknet_3_6__leaf_clk
*933 clknet_3_7__leaf_clk
*934 f\.x_ns\[0\]
*935 f\.x_ns\[10\]
*936 f\.x_ns\[11\]
*937 f\.x_ns\[12\]
*938 f\.x_ns\[13\]
*939 f\.x_ns\[14\]
*940 f\.x_ns\[15\]
*941 f\.x_ns\[16\]
*942 f\.x_ns\[17\]
*943 f\.x_ns\[18\]
*944 f\.x_ns\[19\]
*945 f\.x_ns\[1\]
*946 f\.x_ns\[20\]
*947 f\.x_ns\[21\]
*948 f\.x_ns\[22\]
*949 f\.x_ns\[23\]
*950 f\.x_ns\[24\]
*951 f\.x_ns\[25\]
*952 f\.x_ns\[26\]
*953 f\.x_ns\[27\]
*954 f\.x_ns\[28\]
*955 f\.x_ns\[29\]
*956 f\.x_ns\[2\]
*957 f\.x_ns\[30\]
*958 f\.x_ns\[31\]
*959 f\.x_ns\[3\]
*960 f\.x_ns\[4\]
*961 f\.x_ns\[5\]
*962 f\.x_ns\[6\]
*963 f\.x_ns\[7\]
*964 f\.x_ns\[8\]
*965 f\.x_ns\[9\]
*966 net1
*967 net10
*968 net11
*969 net12
*970 net13
*971 net14
*972 net15
*973 net16
*974 net17
*975 net18
*976 net2
*977 net28
*978 net29
*979 net3
*980 net30
*981 net31
*982 net32
*983 net33
*984 net4
*985 net5
*986 net6
*987 net7
*988 net8
*989 net9
*990 FILLER_0_0_109
*991 FILLER_0_0_113
*992 FILLER_0_0_125
*993 FILLER_0_0_133
*994 FILLER_0_0_139
*995 FILLER_0_0_141
*996 FILLER_0_0_15
*997 FILLER_0_0_158
*998 FILLER_0_0_166
*999 FILLER_0_0_169
*1000 FILLER_0_0_177
*1001 FILLER_0_0_195
*1002 FILLER_0_0_197
*1003 FILLER_0_0_209
*1004 FILLER_0_0_221
*1005 FILLER_0_0_225
*1006 FILLER_0_0_237
*1007 FILLER_0_0_249
*1008 FILLER_0_0_253
*1009 FILLER_0_0_265
*1010 FILLER_0_0_27
*1011 FILLER_0_0_277
*1012 FILLER_0_0_281
*1013 FILLER_0_0_29
*1014 FILLER_0_0_293
*1015 FILLER_0_0_3
*1016 FILLER_0_0_305
*1017 FILLER_0_0_309
*1018 FILLER_0_0_321
*1019 FILLER_0_0_333
*1020 FILLER_0_0_337
*1021 FILLER_0_0_349
*1022 FILLER_0_0_41
*1023 FILLER_0_0_53
*1024 FILLER_0_0_57
*1025 FILLER_0_0_69
*1026 FILLER_0_0_81
*1027 FILLER_0_0_85
*1028 FILLER_0_0_97
*1029 FILLER_0_10_102
*1030 FILLER_0_10_106
*1031 FILLER_0_10_118
*1032 FILLER_0_10_129
*1033 FILLER_0_10_137
*1034 FILLER_0_10_141
*1035 FILLER_0_10_148
*1036 FILLER_0_10_15
*1037 FILLER_0_10_172
*1038 FILLER_0_10_193
*1039 FILLER_0_10_197
*1040 FILLER_0_10_226
*1041 FILLER_0_10_234
*1042 FILLER_0_10_246
*1043 FILLER_0_10_253
*1044 FILLER_0_10_27
*1045 FILLER_0_10_276
*1046 FILLER_0_10_280
*1047 FILLER_0_10_3
*1048 FILLER_0_10_302
*1049 FILLER_0_10_309
*1050 FILLER_0_10_324
*1051 FILLER_0_10_347
*1052 FILLER_0_10_40
*1053 FILLER_0_10_57
*1054 FILLER_0_10_64
*1055 FILLER_0_10_76
*1056 FILLER_0_10_83
*1057 FILLER_0_10_90
*1058 FILLER_0_11_113
*1059 FILLER_0_11_121
*1060 FILLER_0_11_132
*1061 FILLER_0_11_150
*1062 FILLER_0_11_154
*1063 FILLER_0_11_177
*1064 FILLER_0_11_185
*1065 FILLER_0_11_211
*1066 FILLER_0_11_223
*1067 FILLER_0_11_225
*1068 FILLER_0_11_238
*1069 FILLER_0_11_25
*1070 FILLER_0_11_250
*1071 FILLER_0_11_254
*1072 FILLER_0_11_265
*1073 FILLER_0_11_277
*1074 FILLER_0_11_291
*1075 FILLER_0_11_3
*1076 FILLER_0_11_304
*1077 FILLER_0_11_312
*1078 FILLER_0_11_324
*1079 FILLER_0_11_337
*1080 FILLER_0_11_349
*1081 FILLER_0_11_43
*1082 FILLER_0_11_55
*1083 FILLER_0_11_57
*1084 FILLER_0_11_73
*1085 FILLER_0_11_79
*1086 FILLER_0_11_86
*1087 FILLER_0_12_109
*1088 FILLER_0_12_122
*1089 FILLER_0_12_132
*1090 FILLER_0_12_141
*1091 FILLER_0_12_15
*1092 FILLER_0_12_153
*1093 FILLER_0_12_174
*1094 FILLER_0_12_193
*1095 FILLER_0_12_197
*1096 FILLER_0_12_209
*1097 FILLER_0_12_21
*1098 FILLER_0_12_219
*1099 FILLER_0_12_227
*1100 FILLER_0_12_244
*1101 FILLER_0_12_248
*1102 FILLER_0_12_285
*1103 FILLER_0_12_299
*1104 FILLER_0_12_3
*1105 FILLER_0_12_307
*1106 FILLER_0_12_309
*1107 FILLER_0_12_321
*1108 FILLER_0_12_327
*1109 FILLER_0_12_342
*1110 FILLER_0_12_35
*1111 FILLER_0_12_350
*1112 FILLER_0_12_43
*1113 FILLER_0_12_59
*1114 FILLER_0_12_71
*1115 FILLER_0_12_79
*1116 FILLER_0_12_83
*1117 FILLER_0_12_85
*1118 FILLER_0_12_97
*1119 FILLER_0_13_104
*1120 FILLER_0_13_113
*1121 FILLER_0_13_128
*1122 FILLER_0_13_141
*1123 FILLER_0_13_151
*1124 FILLER_0_13_16
*1125 FILLER_0_13_163
*1126 FILLER_0_13_167
*1127 FILLER_0_13_169
*1128 FILLER_0_13_179
*1129 FILLER_0_13_191
*1130 FILLER_0_13_199
*1131 FILLER_0_13_219
*1132 FILLER_0_13_223
*1133 FILLER_0_13_225
*1134 FILLER_0_13_237
*1135 FILLER_0_13_245
*1136 FILLER_0_13_276
*1137 FILLER_0_13_28
*1138 FILLER_0_13_281
*1139 FILLER_0_13_285
*1140 FILLER_0_13_3
*1141 FILLER_0_13_319
*1142 FILLER_0_13_331
*1143 FILLER_0_13_335
*1144 FILLER_0_13_344
*1145 FILLER_0_13_350
*1146 FILLER_0_13_40
*1147 FILLER_0_13_51
*1148 FILLER_0_13_55
*1149 FILLER_0_13_62
*1150 FILLER_0_13_77
*1151 FILLER_0_13_89
*1152 FILLER_0_13_9
*1153 FILLER_0_14_101
*1154 FILLER_0_14_113
*1155 FILLER_0_14_12
*1156 FILLER_0_14_125
*1157 FILLER_0_14_137
*1158 FILLER_0_14_141
*1159 FILLER_0_14_153
*1160 FILLER_0_14_165
*1161 FILLER_0_14_174
*1162 FILLER_0_14_178
*1163 FILLER_0_14_185
*1164 FILLER_0_14_197
*1165 FILLER_0_14_207
*1166 FILLER_0_14_215
*1167 FILLER_0_14_235
*1168 FILLER_0_14_251
*1169 FILLER_0_14_261
*1170 FILLER_0_14_294
*1171 FILLER_0_14_3
*1172 FILLER_0_14_306
*1173 FILLER_0_14_309
*1174 FILLER_0_14_313
*1175 FILLER_0_14_324
*1176 FILLER_0_14_336
*1177 FILLER_0_14_348
*1178 FILLER_0_14_36
*1179 FILLER_0_14_48
*1180 FILLER_0_14_56
*1181 FILLER_0_14_68
*1182 FILLER_0_14_80
*1183 FILLER_0_14_85
*1184 FILLER_0_14_91
*1185 FILLER_0_15_106
*1186 FILLER_0_15_127
*1187 FILLER_0_15_131
*1188 FILLER_0_15_137
*1189 FILLER_0_15_143
*1190 FILLER_0_15_15
*1191 FILLER_0_15_154
*1192 FILLER_0_15_165
*1193 FILLER_0_15_176
*1194 FILLER_0_15_184
*1195 FILLER_0_15_201
*1196 FILLER_0_15_221
*1197 FILLER_0_15_225
*1198 FILLER_0_15_234
*1199 FILLER_0_15_246
*1200 FILLER_0_15_255
*1201 FILLER_0_15_263
*1202 FILLER_0_15_273
*1203 FILLER_0_15_281
*1204 FILLER_0_15_3
*1205 FILLER_0_15_302
*1206 FILLER_0_15_306
*1207 FILLER_0_15_314
*1208 FILLER_0_15_326
*1209 FILLER_0_15_337
*1210 FILLER_0_15_34
*1211 FILLER_0_15_345
*1212 FILLER_0_15_46
*1213 FILLER_0_15_63
*1214 FILLER_0_15_79
*1215 FILLER_0_15_98
*1216 FILLER_0_16_104
*1217 FILLER_0_16_113
*1218 FILLER_0_16_125
*1219 FILLER_0_16_135
*1220 FILLER_0_16_139
*1221 FILLER_0_16_141
*1222 FILLER_0_16_153
*1223 FILLER_0_16_165
*1224 FILLER_0_16_177
*1225 FILLER_0_16_185
*1226 FILLER_0_16_191
*1227 FILLER_0_16_195
*1228 FILLER_0_16_197
*1229 FILLER_0_16_210
*1230 FILLER_0_16_22
*1231 FILLER_0_16_222
*1232 FILLER_0_16_230
*1233 FILLER_0_16_246
*1234 FILLER_0_16_253
*1235 FILLER_0_16_272
*1236 FILLER_0_16_280
*1237 FILLER_0_16_290
*1238 FILLER_0_16_3
*1239 FILLER_0_16_309
*1240 FILLER_0_16_315
*1241 FILLER_0_16_323
*1242 FILLER_0_16_332
*1243 FILLER_0_16_344
*1244 FILLER_0_16_350
*1245 FILLER_0_16_36
*1246 FILLER_0_16_42
*1247 FILLER_0_16_50
*1248 FILLER_0_16_69
*1249 FILLER_0_16_81
*1250 FILLER_0_16_92
*1251 FILLER_0_17_100
*1252 FILLER_0_17_113
*1253 FILLER_0_17_120
*1254 FILLER_0_17_128
*1255 FILLER_0_17_138
*1256 FILLER_0_17_146
*1257 FILLER_0_17_15
*1258 FILLER_0_17_151
*1259 FILLER_0_17_158
*1260 FILLER_0_17_166
*1261 FILLER_0_17_176
*1262 FILLER_0_17_180
*1263 FILLER_0_17_189
*1264 FILLER_0_17_201
*1265 FILLER_0_17_217
*1266 FILLER_0_17_225
*1267 FILLER_0_17_235
*1268 FILLER_0_17_264
*1269 FILLER_0_17_27
*1270 FILLER_0_17_281
*1271 FILLER_0_17_3
*1272 FILLER_0_17_303
*1273 FILLER_0_17_314
*1274 FILLER_0_17_326
*1275 FILLER_0_17_334
*1276 FILLER_0_17_337
*1277 FILLER_0_17_38
*1278 FILLER_0_17_50
*1279 FILLER_0_17_57
*1280 FILLER_0_17_69
*1281 FILLER_0_17_7
*1282 FILLER_0_17_76
*1283 FILLER_0_17_88
*1284 FILLER_0_17_92
*1285 FILLER_0_18_108
*1286 FILLER_0_18_118
*1287 FILLER_0_18_122
*1288 FILLER_0_18_168
*1289 FILLER_0_18_18
*1290 FILLER_0_18_181
*1291 FILLER_0_18_193
*1292 FILLER_0_18_197
*1293 FILLER_0_18_213
*1294 FILLER_0_18_221
*1295 FILLER_0_18_250
*1296 FILLER_0_18_253
*1297 FILLER_0_18_26
*1298 FILLER_0_18_261
*1299 FILLER_0_18_285
*1300 FILLER_0_18_297
*1301 FILLER_0_18_3
*1302 FILLER_0_18_305
*1303 FILLER_0_18_309
*1304 FILLER_0_18_321
*1305 FILLER_0_18_330
*1306 FILLER_0_18_339
*1307 FILLER_0_18_34
*1308 FILLER_0_18_346
*1309 FILLER_0_18_350
*1310 FILLER_0_18_60
*1311 FILLER_0_18_85
*1312 FILLER_0_19_120
*1313 FILLER_0_19_132
*1314 FILLER_0_19_144
*1315 FILLER_0_19_15
*1316 FILLER_0_19_152
*1317 FILLER_0_19_158
*1318 FILLER_0_19_166
*1319 FILLER_0_19_169
*1320 FILLER_0_19_175
*1321 FILLER_0_19_187
*1322 FILLER_0_19_19
*1323 FILLER_0_19_195
*1324 FILLER_0_19_216
*1325 FILLER_0_19_245
*1326 FILLER_0_19_271
*1327 FILLER_0_19_279
*1328 FILLER_0_19_288
*1329 FILLER_0_19_292
*1330 FILLER_0_19_3
*1331 FILLER_0_19_317
*1332 FILLER_0_19_334
*1333 FILLER_0_19_337
*1334 FILLER_0_19_346
*1335 FILLER_0_19_350
*1336 FILLER_0_19_37
*1337 FILLER_0_19_49
*1338 FILLER_0_19_55
*1339 FILLER_0_19_57
*1340 FILLER_0_19_69
*1341 FILLER_0_19_81
*1342 FILLER_0_19_93
*1343 FILLER_0_1_105
*1344 FILLER_0_1_111
*1345 FILLER_0_1_113
*1346 FILLER_0_1_125
*1347 FILLER_0_1_129
*1348 FILLER_0_1_146
*1349 FILLER_0_1_15
*1350 FILLER_0_1_169
*1351 FILLER_0_1_186
*1352 FILLER_0_1_196
*1353 FILLER_0_1_208
*1354 FILLER_0_1_220
*1355 FILLER_0_1_225
*1356 FILLER_0_1_237
*1357 FILLER_0_1_241
*1358 FILLER_0_1_258
*1359 FILLER_0_1_27
*1360 FILLER_0_1_270
*1361 FILLER_0_1_278
*1362 FILLER_0_1_281
*1363 FILLER_0_1_293
*1364 FILLER_0_1_3
*1365 FILLER_0_1_305
*1366 FILLER_0_1_317
*1367 FILLER_0_1_329
*1368 FILLER_0_1_335
*1369 FILLER_0_1_337
*1370 FILLER_0_1_349
*1371 FILLER_0_1_39
*1372 FILLER_0_1_51
*1373 FILLER_0_1_55
*1374 FILLER_0_1_57
*1375 FILLER_0_1_69
*1376 FILLER_0_1_81
*1377 FILLER_0_1_93
*1378 FILLER_0_20_104
*1379 FILLER_0_20_117
*1380 FILLER_0_20_12
*1381 FILLER_0_20_138
*1382 FILLER_0_20_144
*1383 FILLER_0_20_185
*1384 FILLER_0_20_193
*1385 FILLER_0_20_213
*1386 FILLER_0_20_225
*1387 FILLER_0_20_231
*1388 FILLER_0_20_235
*1389 FILLER_0_20_24
*1390 FILLER_0_20_249
*1391 FILLER_0_20_259
*1392 FILLER_0_20_278
*1393 FILLER_0_20_3
*1394 FILLER_0_20_309
*1395 FILLER_0_20_327
*1396 FILLER_0_20_333
*1397 FILLER_0_20_344
*1398 FILLER_0_20_350
*1399 FILLER_0_20_39
*1400 FILLER_0_20_43
*1401 FILLER_0_20_78
*1402 FILLER_0_21_110
*1403 FILLER_0_21_113
*1404 FILLER_0_21_125
*1405 FILLER_0_21_129
*1406 FILLER_0_21_141
*1407 FILLER_0_21_156
*1408 FILLER_0_21_160
*1409 FILLER_0_21_166
*1410 FILLER_0_21_169
*1411 FILLER_0_21_181
*1412 FILLER_0_21_209
*1413 FILLER_0_21_225
*1414 FILLER_0_21_239
*1415 FILLER_0_21_24
*1416 FILLER_0_21_253
*1417 FILLER_0_21_265
*1418 FILLER_0_21_277
*1419 FILLER_0_21_28
*1420 FILLER_0_21_281
*1421 FILLER_0_21_293
*1422 FILLER_0_21_297
*1423 FILLER_0_21_3
*1424 FILLER_0_21_315
*1425 FILLER_0_21_326
*1426 FILLER_0_21_334
*1427 FILLER_0_21_337
*1428 FILLER_0_21_348
*1429 FILLER_0_21_36
*1430 FILLER_0_21_51
*1431 FILLER_0_21_55
*1432 FILLER_0_21_57
*1433 FILLER_0_21_69
*1434 FILLER_0_21_81
*1435 FILLER_0_21_98
*1436 FILLER_0_22_118
*1437 FILLER_0_22_14
*1438 FILLER_0_22_141
*1439 FILLER_0_22_149
*1440 FILLER_0_22_157
*1441 FILLER_0_22_184
*1442 FILLER_0_22_195
*1443 FILLER_0_22_204
*1444 FILLER_0_22_230
*1445 FILLER_0_22_253
*1446 FILLER_0_22_26
*1447 FILLER_0_22_272
*1448 FILLER_0_22_29
*1449 FILLER_0_22_290
*1450 FILLER_0_22_3
*1451 FILLER_0_22_317
*1452 FILLER_0_22_329
*1453 FILLER_0_22_340
*1454 FILLER_0_22_348
*1455 FILLER_0_22_35
*1456 FILLER_0_22_47
*1457 FILLER_0_22_59
*1458 FILLER_0_22_67
*1459 FILLER_0_22_77
*1460 FILLER_0_22_83
*1461 FILLER_0_22_85
*1462 FILLER_0_22_89
*1463 FILLER_0_22_98
*1464 FILLER_0_23_101
*1465 FILLER_0_23_109
*1466 FILLER_0_23_113
*1467 FILLER_0_23_117
*1468 FILLER_0_23_12
*1469 FILLER_0_23_121
*1470 FILLER_0_23_132
*1471 FILLER_0_23_141
*1472 FILLER_0_23_161
*1473 FILLER_0_23_167
*1474 FILLER_0_23_205
*1475 FILLER_0_23_213
*1476 FILLER_0_23_222
*1477 FILLER_0_23_231
*1478 FILLER_0_23_245
*1479 FILLER_0_23_268
*1480 FILLER_0_23_288
*1481 FILLER_0_23_3
*1482 FILLER_0_23_300
*1483 FILLER_0_23_321
*1484 FILLER_0_23_334
*1485 FILLER_0_23_340
*1486 FILLER_0_23_348
*1487 FILLER_0_23_38
*1488 FILLER_0_23_44
*1489 FILLER_0_23_52
*1490 FILLER_0_23_63
*1491 FILLER_0_23_84
*1492 FILLER_0_23_96
*1493 FILLER_0_24_104
*1494 FILLER_0_24_108
*1495 FILLER_0_24_127
*1496 FILLER_0_24_137
*1497 FILLER_0_24_141
*1498 FILLER_0_24_149
*1499 FILLER_0_24_15
*1500 FILLER_0_24_155
*1501 FILLER_0_24_163
*1502 FILLER_0_24_175
*1503 FILLER_0_24_187
*1504 FILLER_0_24_195
*1505 FILLER_0_24_197
*1506 FILLER_0_24_203
*1507 FILLER_0_24_215
*1508 FILLER_0_24_227
*1509 FILLER_0_24_248
*1510 FILLER_0_24_259
*1511 FILLER_0_24_27
*1512 FILLER_0_24_270
*1513 FILLER_0_24_29
*1514 FILLER_0_24_297
*1515 FILLER_0_24_3
*1516 FILLER_0_24_305
*1517 FILLER_0_24_309
*1518 FILLER_0_24_315
*1519 FILLER_0_24_327
*1520 FILLER_0_24_339
*1521 FILLER_0_24_349
*1522 FILLER_0_24_38
*1523 FILLER_0_24_46
*1524 FILLER_0_24_62
*1525 FILLER_0_24_70
*1526 FILLER_0_24_76
*1527 FILLER_0_24_85
*1528 FILLER_0_24_93
*1529 FILLER_0_25_101
*1530 FILLER_0_25_109
*1531 FILLER_0_25_113
*1532 FILLER_0_25_125
*1533 FILLER_0_25_147
*1534 FILLER_0_25_185
*1535 FILLER_0_25_19
*1536 FILLER_0_25_192
*1537 FILLER_0_25_198
*1538 FILLER_0_25_213
*1539 FILLER_0_25_225
*1540 FILLER_0_25_237
*1541 FILLER_0_25_249
*1542 FILLER_0_25_258
*1543 FILLER_0_25_27
*1544 FILLER_0_25_279
*1545 FILLER_0_25_281
*1546 FILLER_0_25_289
*1547 FILLER_0_25_3
*1548 FILLER_0_25_306
*1549 FILLER_0_25_312
*1550 FILLER_0_25_323
*1551 FILLER_0_25_331
*1552 FILLER_0_25_350
*1553 FILLER_0_25_41
*1554 FILLER_0_25_53
*1555 FILLER_0_25_57
*1556 FILLER_0_25_65
*1557 FILLER_0_25_87
*1558 FILLER_0_26_110
*1559 FILLER_0_26_131
*1560 FILLER_0_26_139
*1561 FILLER_0_26_148
*1562 FILLER_0_26_160
*1563 FILLER_0_26_178
*1564 FILLER_0_26_195
*1565 FILLER_0_26_197
*1566 FILLER_0_26_205
*1567 FILLER_0_26_22
*1568 FILLER_0_26_223
*1569 FILLER_0_26_227
*1570 FILLER_0_26_246
*1571 FILLER_0_26_256
*1572 FILLER_0_26_268
*1573 FILLER_0_26_276
*1574 FILLER_0_26_293
*1575 FILLER_0_26_3
*1576 FILLER_0_26_305
*1577 FILLER_0_26_309
*1578 FILLER_0_26_321
*1579 FILLER_0_26_328
*1580 FILLER_0_26_336
*1581 FILLER_0_26_343
*1582 FILLER_0_26_39
*1583 FILLER_0_26_47
*1584 FILLER_0_26_60
*1585 FILLER_0_26_72
*1586 FILLER_0_26_85
*1587 FILLER_0_26_9
*1588 FILLER_0_26_98
*1589 FILLER_0_27_108
*1590 FILLER_0_27_113
*1591 FILLER_0_27_125
*1592 FILLER_0_27_133
*1593 FILLER_0_27_169
*1594 FILLER_0_27_177
*1595 FILLER_0_27_18
*1596 FILLER_0_27_198
*1597 FILLER_0_27_213
*1598 FILLER_0_27_221
*1599 FILLER_0_27_225
*1600 FILLER_0_27_239
*1601 FILLER_0_27_247
*1602 FILLER_0_27_256
*1603 FILLER_0_27_26
*1604 FILLER_0_27_262
*1605 FILLER_0_27_270
*1606 FILLER_0_27_281
*1607 FILLER_0_27_297
*1608 FILLER_0_27_3
*1609 FILLER_0_27_305
*1610 FILLER_0_27_333
*1611 FILLER_0_27_337
*1612 FILLER_0_27_347
*1613 FILLER_0_27_35
*1614 FILLER_0_27_47
*1615 FILLER_0_27_63
*1616 FILLER_0_27_71
*1617 FILLER_0_27_86
*1618 FILLER_0_27_94
*1619 FILLER_0_28_109
*1620 FILLER_0_28_131
*1621 FILLER_0_28_139
*1622 FILLER_0_28_148
*1623 FILLER_0_28_152
*1624 FILLER_0_28_18
*1625 FILLER_0_28_192
*1626 FILLER_0_28_217
*1627 FILLER_0_28_227
*1628 FILLER_0_28_235
*1629 FILLER_0_28_250
*1630 FILLER_0_28_260
*1631 FILLER_0_28_298
*1632 FILLER_0_28_3
*1633 FILLER_0_28_306
*1634 FILLER_0_28_319
*1635 FILLER_0_28_337
*1636 FILLER_0_28_349
*1637 FILLER_0_28_37
*1638 FILLER_0_28_43
*1639 FILLER_0_28_51
*1640 FILLER_0_28_55
*1641 FILLER_0_28_66
*1642 FILLER_0_28_78
*1643 FILLER_0_28_82
*1644 FILLER_0_28_88
*1645 FILLER_0_29_107
*1646 FILLER_0_29_111
*1647 FILLER_0_29_113
*1648 FILLER_0_29_117
*1649 FILLER_0_29_121
*1650 FILLER_0_29_133
*1651 FILLER_0_29_139
*1652 FILLER_0_29_14
*1653 FILLER_0_29_160
*1654 FILLER_0_29_169
*1655 FILLER_0_29_197
*1656 FILLER_0_29_208
*1657 FILLER_0_29_220
*1658 FILLER_0_29_234
*1659 FILLER_0_29_251
*1660 FILLER_0_29_26
*1661 FILLER_0_29_263
*1662 FILLER_0_29_277
*1663 FILLER_0_29_281
*1664 FILLER_0_29_293
*1665 FILLER_0_29_3
*1666 FILLER_0_29_305
*1667 FILLER_0_29_316
*1668 FILLER_0_29_328
*1669 FILLER_0_29_337
*1670 FILLER_0_29_346
*1671 FILLER_0_29_350
*1672 FILLER_0_29_38
*1673 FILLER_0_29_54
*1674 FILLER_0_29_60
*1675 FILLER_0_29_72
*1676 FILLER_0_29_76
*1677 FILLER_0_29_83
*1678 FILLER_0_29_9
*1679 FILLER_0_29_92
*1680 FILLER_0_2_105
*1681 FILLER_0_2_116
*1682 FILLER_0_2_124
*1683 FILLER_0_2_135
*1684 FILLER_0_2_139
*1685 FILLER_0_2_141
*1686 FILLER_0_2_148
*1687 FILLER_0_2_15
*1688 FILLER_0_2_160
*1689 FILLER_0_2_168
*1690 FILLER_0_2_173
*1691 FILLER_0_2_183
*1692 FILLER_0_2_189
*1693 FILLER_0_2_195
*1694 FILLER_0_2_207
*1695 FILLER_0_2_232
*1696 FILLER_0_2_243
*1697 FILLER_0_2_251
*1698 FILLER_0_2_253
*1699 FILLER_0_2_261
*1700 FILLER_0_2_269
*1701 FILLER_0_2_27
*1702 FILLER_0_2_29
*1703 FILLER_0_2_291
*1704 FILLER_0_2_3
*1705 FILLER_0_2_309
*1706 FILLER_0_2_321
*1707 FILLER_0_2_333
*1708 FILLER_0_2_345
*1709 FILLER_0_2_41
*1710 FILLER_0_2_53
*1711 FILLER_0_2_65
*1712 FILLER_0_2_77
*1713 FILLER_0_2_83
*1714 FILLER_0_2_85
*1715 FILLER_0_2_97
*1716 FILLER_0_30_100
*1717 FILLER_0_30_108
*1718 FILLER_0_30_122
*1719 FILLER_0_30_137
*1720 FILLER_0_30_141
*1721 FILLER_0_30_151
*1722 FILLER_0_30_171
*1723 FILLER_0_30_182
*1724 FILLER_0_30_194
*1725 FILLER_0_30_197
*1726 FILLER_0_30_20
*1727 FILLER_0_30_241
*1728 FILLER_0_30_249
*1729 FILLER_0_30_253
*1730 FILLER_0_30_268
*1731 FILLER_0_30_280
*1732 FILLER_0_30_3
*1733 FILLER_0_30_300
*1734 FILLER_0_30_324
*1735 FILLER_0_30_328
*1736 FILLER_0_30_339
*1737 FILLER_0_30_41
*1738 FILLER_0_30_53
*1739 FILLER_0_30_62
*1740 FILLER_0_30_74
*1741 FILLER_0_30_82
*1742 FILLER_0_30_85
*1743 FILLER_0_31_105
*1744 FILLER_0_31_111
*1745 FILLER_0_31_113
*1746 FILLER_0_31_130
*1747 FILLER_0_31_138
*1748 FILLER_0_31_155
*1749 FILLER_0_31_167
*1750 FILLER_0_31_169
*1751 FILLER_0_31_18
*1752 FILLER_0_31_202
*1753 FILLER_0_31_206
*1754 FILLER_0_31_212
*1755 FILLER_0_31_225
*1756 FILLER_0_31_232
*1757 FILLER_0_31_240
*1758 FILLER_0_31_248
*1759 FILLER_0_31_26
*1760 FILLER_0_31_269
*1761 FILLER_0_31_281
*1762 FILLER_0_31_293
*1763 FILLER_0_31_3
*1764 FILLER_0_31_305
*1765 FILLER_0_31_313
*1766 FILLER_0_31_317
*1767 FILLER_0_31_329
*1768 FILLER_0_31_335
*1769 FILLER_0_31_347
*1770 FILLER_0_31_53
*1771 FILLER_0_31_57
*1772 FILLER_0_31_61
*1773 FILLER_0_31_69
*1774 FILLER_0_31_81
*1775 FILLER_0_31_93
*1776 FILLER_0_32_133
*1777 FILLER_0_32_139
*1778 FILLER_0_32_147
*1779 FILLER_0_32_153
*1780 FILLER_0_32_171
*1781 FILLER_0_32_183
*1782 FILLER_0_32_195
*1783 FILLER_0_32_197
*1784 FILLER_0_32_224
*1785 FILLER_0_32_242
*1786 FILLER_0_32_250
*1787 FILLER_0_32_26
*1788 FILLER_0_32_29
*1789 FILLER_0_32_3
*1790 FILLER_0_32_303
*1791 FILLER_0_32_307
*1792 FILLER_0_32_309
*1793 FILLER_0_32_326