*SPEF "ieee 1481-1999"
*DESIGN "tt_um_bulls_and_cows"
*DATE "11:11:11 Fri 11 11, 1111"
*VENDOR "OpenRCX"
*PROGRAM "Parallel Extraction"
*VERSION "1.0"
*DESIGN_FLOW "NAME_SCOPE LOCAL" "PIN_CAP NONE"
*DIVIDER /
*DELIMITER :
*BUS_DELIMITER []
*T_UNIT 1 NS
*C_UNIT 1 PF
*R_UNIT 1 OHM
*L_UNIT 1 HENRY

*NAME_MAP
*3 clk
*4 ena
*5 rst_n
*6 ui_in[0]
*7 ui_in[1]
*8 ui_in[2]
*9 ui_in[3]
*10 ui_in[4]
*11 ui_in[5]
*12 ui_in[6]
*13 ui_in[7]
*14 uio_in[0]
*15 uio_in[1]
*16 uio_in[2]
*17 uio_in[3]
*18 uio_in[4]
*19 uio_in[5]
*20 uio_in[6]
*21 uio_in[7]
*22 net15
*23 net16
*24 net17
*25 net18
*26 net19
*27 net20
*28 net21
*29 net22
*30 net23
*31 net24
*32 net25
*33 net26
*34 net27
*35 net28
*36 net29
*37 net30
*38 uo_out[0]
*39 uo_out[1]
*40 uo_out[2]
*41 uo_out[3]
*42 uo_out[4]
*43 uo_out[5]
*44 uo_out[6]
*45 uo_out[7]
*46 _000_
*47 _001_
*48 _002_
*49 _003_
*50 _004_
*51 _005_
*52 _006_
*53 _007_
*54 _008_
*55 _009_
*56 _010_
*57 _011_
*58 _012_
*59 _013_
*60 _014_
*61 _015_
*62 _016_
*63 _017_
*64 _018_
*65 _019_
*66 _020_
*67 _021_
*68 _022_
*69 _023_
*70 _024_
*71 _025_
*72 _026_
*73 _027_
*74 _028_
*75 _029_
*76 _030_
*77 _031_
*78 _032_
*79 _033_
*80 _034_
*81 _035_
*82 _036_
*83 _037_
*84 _038_
*85 _039_
*86 _040_
*87 _041_
*88 _042_
*89 _043_
*90 _044_
*91 _045_
*92 _046_
*93 _047_
*94 _048_
*95 _049_
*96 _050_
*97 _051_
*98 _052_
*99 _053_
*100 _054_
*101 _055_
*102 _056_
*103 _057_
*104 _058_
*105 _059_
*106 _060_
*107 _061_
*108 _062_
*109 _063_
*110 _064_
*111 _065_
*112 _066_
*113 _067_
*114 _068_
*115 _069_
*116 _070_
*117 _071_
*118 _072_
*119 _073_
*120 _074_
*121 _075_
*122 _076_
*123 _077_
*124 _078_
*125 _079_
*126 _080_
*127 _081_
*128 _082_
*129 _083_
*130 _084_
*131 _085_
*132 _086_
*133 _087_
*134 _088_
*135 _089_
*136 _090_
*137 _091_
*138 _092_
*139 _093_
*140 _094_
*141 _095_
*142 _096_
*143 _097_
*144 _098_
*145 _099_
*146 _100_
*147 _101_
*148 _102_
*149 _103_
*150 _104_
*151 _105_
*152 _106_
*153 _107_
*154 _108_
*155 _109_
*156 _110_
*157 _111_
*158 _112_
*159 _113_
*160 _114_
*161 _115_
*162 _116_
*163 _117_
*164 _118_
*165 _119_
*166 _120_
*167 clknet_0_clk
*168 clknet_1_0__leaf_clk
*169 clknet_1_1__leaf_clk
*170 net1
*171 net10
*172 net11
*173 net12
*174 net13
*175 net14
*176 net2
*177 net3
*178 net31
*179 net32
*180 net33
*181 net34
*182 net35
*183 net36
*184 net37
*185 net38
*186 net4
*187 net5
*188 net6
*189 net7
*190 net8
*191 net9
*192 tt_b_c\.bull\.bull_a
*193 tt_b_c\.bull\.bull_b
*194 tt_b_c\.bull\.bull_c
*195 tt_b_c\.bull\.bull_d
*196 tt_b_c\.bull\.cow_a
*197 tt_b_c\.bull\.cow_b
*198 tt_b_c\.bull\.cow_c
*199 tt_b_c\.bull\.cow_d
*200 tt_b_c\.bull\.secret_number_A\[0\]
*201 tt_b_c\.bull\.secret_number_A\[1\]
*202 tt_b_c\.bull\.secret_number_A\[2\]
*203 tt_b_c\.bull\.secret_number_B\[0\]
*204 tt_b_c\.bull\.secret_number_B\[1\]
*205 tt_b_c\.bull\.secret_number_B\[2\]
*206 tt_b_c\.bull\.secret_number_C\[0\]
*207 tt_b_c\.bull\.secret_number_C\[1\]
*208 tt_b_c\.bull\.secret_number_C\[2\]
*209 tt_b_c\.bull\.secret_number_D\[0\]
*210 tt_b_c\.bull\.secret_number_D\[1\]
*211 tt_b_c\.bull\.secret_number_D\[2\]
*212 FILLER_0_0_109
*213 FILLER_0_0_113
*214 FILLER_0_0_125
*215 FILLER_0_0_137
*216 FILLER_0_0_141
*217 FILLER_0_0_15
*218 FILLER_0_0_153
*219 FILLER_0_0_165
*220 FILLER_0_0_169
*221 FILLER_0_0_181
*222 FILLER_0_0_193
*223 FILLER_0_0_197
*224 FILLER_0_0_209
*225 FILLER_0_0_221
*226 FILLER_0_0_225
*227 FILLER_0_0_237
*228 FILLER_0_0_249
*229 FILLER_0_0_253
*230 FILLER_0_0_265
*231 FILLER_0_0_27
*232 FILLER_0_0_277
*233 FILLER_0_0_281
*234 FILLER_0_0_29
*235 FILLER_0_0_293
*236 FILLER_0_0_3
*237 FILLER_0_0_305
*238 FILLER_0_0_309
*239 FILLER_0_0_321
*240 FILLER_0_0_333
*241 FILLER_0_0_337
*242 FILLER_0_0_349
*243 FILLER_0_0_41
*244 FILLER_0_0_53
*245 FILLER_0_0_57
*246 FILLER_0_0_69
*247 FILLER_0_0_81
*248 FILLER_0_0_85
*249 FILLER_0_0_97
*250 FILLER_0_10_109
*251 FILLER_0_10_121
*252 FILLER_0_10_133
*253 FILLER_0_10_139
*254 FILLER_0_10_141
*255 FILLER_0_10_15
*256 FILLER_0_10_153
*257 FILLER_0_10_165
*258 FILLER_0_10_177
*259 FILLER_0_10_189
*260 FILLER_0_10_195
*261 FILLER_0_10_197
*262 FILLER_0_10_209
*263 FILLER_0_10_221
*264 FILLER_0_10_233
*265 FILLER_0_10_245
*266 FILLER_0_10_251
*267 FILLER_0_10_253
*268 FILLER_0_10_265
*269 FILLER_0_10_27
*270 FILLER_0_10_277
*271 FILLER_0_10_289
*272 FILLER_0_10_29
*273 FILLER_0_10_3
*274 FILLER_0_10_301
*275 FILLER_0_10_307
*276 FILLER_0_10_309
*277 FILLER_0_10_321
*278 FILLER_0_10_333
*279 FILLER_0_10_345
*280 FILLER_0_10_41
*281 FILLER_0_10_53
*282 FILLER_0_10_65
*283 FILLER_0_10_77
*284 FILLER_0_10_83
*285 FILLER_0_10_85
*286 FILLER_0_10_97
*287 FILLER_0_11_105
*288 FILLER_0_11_111
*289 FILLER_0_11_113
*290 FILLER_0_11_125
*291 FILLER_0_11_137
*292 FILLER_0_11_149
*293 FILLER_0_11_15
*294 FILLER_0_11_161
*295 FILLER_0_11_167
*296 FILLER_0_11_169
*297 FILLER_0_11_181
*298 FILLER_0_11_193
*299 FILLER_0_11_205
*300 FILLER_0_11_217
*301 FILLER_0_11_223
*302 FILLER_0_11_225
*303 FILLER_0_11_237
*304 FILLER_0_11_249
*305 FILLER_0_11_261
*306 FILLER_0_11_27
*307 FILLER_0_11_273
*308 FILLER_0_11_279
*309 FILLER_0_11_281
*310 FILLER_0_11_293
*311 FILLER_0_11_3
*312 FILLER_0_11_305
*313 FILLER_0_11_317
*314 FILLER_0_11_329
*315 FILLER_0_11_335
*316 FILLER_0_11_337
*317 FILLER_0_11_349
*318 FILLER_0_11_39
*319 FILLER_0_11_51
*320 FILLER_0_11_55
*321 FILLER_0_11_57
*322 FILLER_0_11_69
*323 FILLER_0_11_81
*324 FILLER_0_11_93
*325 FILLER_0_12_109
*326 FILLER_0_12_121
*327 FILLER_0_12_133
*328 FILLER_0_12_139
*329 FILLER_0_12_141
*330 FILLER_0_12_15
*331 FILLER_0_12_153
*332 FILLER_0_12_165
*333 FILLER_0_12_177
*334 FILLER_0_12_189
*335 FILLER_0_12_195
*336 FILLER_0_12_197
*337 FILLER_0_12_209
*338 FILLER_0_12_221
*339 FILLER_0_12_233
*340 FILLER_0_12_245
*341 FILLER_0_12_251
*342 FILLER_0_12_253
*343 FILLER_0_12_265
*344 FILLER_0_12_27
*345 FILLER_0_12_277
*346 FILLER_0_12_289
*347 FILLER_0_12_29
*348 FILLER_0_12_3
*349 FILLER_0_12_301
*350 FILLER_0_12_307
*351 FILLER_0_12_309
*352 FILLER_0_12_321
*353 FILLER_0_12_333
*354 FILLER_0_12_345
*355 FILLER_0_12_41
*356 FILLER_0_12_53
*357 FILLER_0_12_65
*358 FILLER_0_12_77
*359 FILLER_0_12_83
*360 FILLER_0_12_85
*361 FILLER_0_12_97
*362 FILLER_0_13_105
*363 FILLER_0_13_111
*364 FILLER_0_13_113
*365 FILLER_0_13_125
*366 FILLER_0_13_137
*367 FILLER_0_13_149
*368 FILLER_0_13_15
*369 FILLER_0_13_161
*370 FILLER_0_13_167
*371 FILLER_0_13_169
*372 FILLER_0_13_181
*373 FILLER_0_13_193
*374 FILLER_0_13_205
*375 FILLER_0_13_217
*376 FILLER_0_13_223
*377 FILLER_0_13_225
*378 FILLER_0_13_237
*379 FILLER_0_13_249
*380 FILLER_0_13_261
*381 FILLER_0_13_27
*382 FILLER_0_13_273
*383 FILLER_0_13_279
*384 FILLER_0_13_281
*385 FILLER_0_13_293
*386 FILLER_0_13_3
*387 FILLER_0_13_305
*388 FILLER_0_13_317
*389 FILLER_0_13_329
*390 FILLER_0_13_335
*391 FILLER_0_13_337
*392 FILLER_0_13_349
*393 FILLER_0_13_39
*394 FILLER_0_13_51
*395 FILLER_0_13_55
*396 FILLER_0_13_57
*397 FILLER_0_13_69
*398 FILLER_0_13_81
*399 FILLER_0_13_93
*400 FILLER_0_14_109
*401 FILLER_0_14_121
*402 FILLER_0_14_133
*403 FILLER_0_14_139
*404 FILLER_0_14_141
*405 FILLER_0_14_15
*406 FILLER_0_14_153
*407 FILLER_0_14_165
*408 FILLER_0_14_177
*409 FILLER_0_14_189
*410 FILLER_0_14_195
*411 FILLER_0_14_197
*412 FILLER_0_14_209
*413 FILLER_0_14_221
*414 FILLER_0_14_233
*415 FILLER_0_14_245
*416 FILLER_0_14_251
*417 FILLER_0_14_253
*418 FILLER_0_14_265
*419 FILLER_0_14_27
*420 FILLER_0_14_277
*421 FILLER_0_14_289
*422 FILLER_0_14_29
*423 FILLER_0_14_3
*424 FILLER_0_14_301
*425 FILLER_0_14_307
*426 FILLER_0_14_309
*427 FILLER_0_14_321
*428 FILLER_0_14_333
*429 FILLER_0_14_345
*430 FILLER_0_14_41
*431 FILLER_0_14_53
*432 FILLER_0_14_65
*433 FILLER_0_14_77
*434 FILLER_0_14_83
*435 FILLER_0_14_85
*436 FILLER_0_14_97
*437 FILLER_0_15_105
*438 FILLER_0_15_111
*439 FILLER_0_15_113
*440 FILLER_0_15_125
*441 FILLER_0_15_137
*442 FILLER_0_15_149
*443 FILLER_0_15_15
*444 FILLER_0_15_161
*445 FILLER_0_15_167
*446 FILLER_0_15_169
*447 FILLER_0_15_181
*448 FILLER_0_15_193
*449 FILLER_0_15_205
*450 FILLER_0_15_217
*451 FILLER_0_15_223
*452 FILLER_0_15_225
*453 FILLER_0_15_237
*454 FILLER_0_15_249
*455 FILLER_0_15_261
*456 FILLER_0_15_27
*457 FILLER_0_15_273
*458 FILLER_0_15_279
*459 FILLER_0_15_281
*460 FILLER_0_15_293
*461 FILLER_0_15_3
*462 FILLER_0_15_305
*463 FILLER_0_15_317
*464 FILLER_0_15_329
*465 FILLER_0_15_335
*466 FILLER_0_15_337
*467 FILLER_0_15_349
*468 FILLER_0_15_39
*469 FILLER_0_15_51
*470 FILLER_0_15_55
*471 FILLER_0_15_57
*472 FILLER_0_15_69
*473 FILLER_0_15_81
*474 FILLER_0_15_93
*475 FILLER_0_16_109
*476 FILLER_0_16_121
*477 FILLER_0_16_133
*478 FILLER_0_16_139
*479 FILLER_0_16_141
*480 FILLER_0_16_15
*481 FILLER_0_16_153
*482 FILLER_0_16_165
*483 FILLER_0_16_177
*484 FILLER_0_16_189
*485 FILLER_0_16_195
*486 FILLER_0_16_197
*487 FILLER_0_16_209
*488 FILLER_0_16_221
*489 FILLER_0_16_233
*490 FILLER_0_16_245
*491 FILLER_0_16_251
*492 FILLER_0_16_253
*493 FILLER_0_16_265
*494 FILLER_0_16_27
*495 FILLER_0_16_277
*496 FILLER_0_16_289
*497 FILLER_0_16_29
*498 FILLER_0_16_3
*499 FILLER_0_16_301
*500 FILLER_0_16_307
*501 FILLER_0_16_309
*502 FILLER_0_16_321
*503 FILLER_0_16_333
*504 FILLER_0_16_345
*505 FILLER_0_16_41
*506 FILLER_0_16_53
*507 FILLER_0_16_65
*508 FILLER_0_16_77
*509 FILLER_0_16_83
*510 FILLER_0_16_85
*511 FILLER_0_16_97
*512 FILLER_0_17_105
*513 FILLER_0_17_111
*514 FILLER_0_17_113
*515 FILLER_0_17_125
*516 FILLER_0_17_137
*517 FILLER_0_17_149
*518 FILLER_0_17_15
*519 FILLER_0_17_161
*520 FILLER_0_17_167
*521 FILLER_0_17_169
*522 FILLER_0_17_181
*523 FILLER_0_17_193
*524 FILLER_0_17_205
*525 FILLER_0_17_217
*526 FILLER_0_17_223
*527 FILLER_0_17_225
*528 FILLER_0_17_237
*529 FILLER_0_17_249
*530 FILLER_0_17_261
*531 FILLER_0_17_27
*532 FILLER_0_17_273
*533 FILLER_0_17_279
*534 FILLER_0_17_281
*535 FILLER_0_17_293
*536 FILLER_0_17_3
*537 FILLER_0_17_305
*538 FILLER_0_17_317
*539 FILLER_0_17_329
*540 FILLER_0_17_335
*541 FILLER_0_17_337
*542 FILLER_0_17_349
*543 FILLER_0_17_39
*544 FILLER_0_17_51
*545 FILLER_0_17_55
*546 FILLER_0_17_57
*547 FILLER_0_17_69
*548 FILLER_0_17_81
*549 FILLER_0_17_93
*550 FILLER_0_18_109
*551 FILLER_0_18_121
*552 FILLER_0_18_133
*553 FILLER_0_18_139
*554 FILLER_0_18_141
*555 FILLER_0_18_15
*556 FILLER_0_18_153
*557 FILLER_0_18_165
*558 FILLER_0_18_177
*559 FILLER_0_18_189
*560 FILLER_0_18_195
*561 FILLER_0_18_197
*562 FILLER_0_18_209
*563 FILLER_0_18_221
*564 FILLER_0_18_233
*565 FILLER_0_18_245
*566 FILLER_0_18_251
*567 FILLER_0_18_253
*568 FILLER_0_18_265
*569 FILLER_0_18_27
*570 FILLER_0_18_277
*571 FILLER_0_18_289
*572 FILLER_0_18_29
*573 FILLER_0_18_3
*574 FILLER_0_18_301
*575 FILLER_0_18_307
*576 FILLER_0_18_309
*577 FILLER_0_18_321
*578 FILLER_0_18_333
*579 FILLER_0_18_345
*580 FILLER_0_18_41
*581 FILLER_0_18_53
*582 FILLER_0_18_65
*583 FILLER_0_18_77
*584 FILLER_0_18_83
*585 FILLER_0_18_85
*586 FILLER_0_18_97
*587 FILLER_0_19_105
*588 FILLER_0_19_111
*589 FILLER_0_19_113
*590 FILLER_0_19_125
*591 FILLER_0_19_137
*592 FILLER_0_19_149
*593 FILLER_0_19_15
*594 FILLER_0_19_161
*595 FILLER_0_19_167
*596 FILLER_0_19_169
*597 FILLER_0_19_181
*598 FILLER_0_19_193
*599 FILLER_0_19_205
*600 FILLER_0_19_217
*601 FILLER_0_19_223
*602 FILLER_0_19_225
*603 FILLER_0_19_237
*604 FILLER_0_19_249
*605 FILLER_0_19_261
*606 FILLER_0_19_27
*607 FILLER_0_19_273
*608 FILLER_0_19_279
*609 FILLER_0_19_281
*610 FILLER_0_19_293
*611 FILLER_0_19_3
*612 FILLER_0_19_305
*613 FILLER_0_19_317
*614 FILLER_0_19_329
*615 FILLER_0_19_335
*616 FILLER_0_19_337
*617 FILLER_0_19_349
*618 FILLER_0_19_39
*619 FILLER_0_19_51
*620 FILLER_0_19_55
*621 FILLER_0_19_57
*622 FILLER_0_19_69
*623 FILLER_0_19_81
*624 FILLER_0_19_93
*625 FILLER_0_1_105
*626 FILLER_0_1_111
*627 FILLER_0_1_113
*628 FILLER_0_1_125
*629 FILLER_0_1_137
*630 FILLER_0_1_149
*631 FILLER_0_1_15
*632 FILLER_0_1_161
*633 FILLER_0_1_167
*634 FILLER_0_1_169
*635 FILLER_0_1_181
*636 FILLER_0_1_193
*637 FILLER_0_1_205
*638 FILLER_0_1_217
*639 FILLER_0_1_223
*640 FILLER_0_1_225
*641 FILLER_0_1_237
*642 FILLER_0_1_249
*643 FILLER_0_1_261
*644 FILLER_0_1_27
*645 FILLER_0_1_273
*646 FILLER_0_1_279
*647 FILLER_0_1_281
*648 FILLER_0_1_293
*649 FILLER_0_1_3
*650 FILLER_0_1_305
*651 FILLER_0_1_317
*652 FILLER_0_1_329
*653 FILLER_0_1_335
*654 FILLER_0_1_337
*655 FILLER_0_1_349
*656 FILLER_0_1_39
*657 FILLER_0_1_51
*658 FILLER_0_1_55
*659 FILLER_0_1_57
*660 FILLER_0_1_69
*661 FILLER_0_1_81
*662 FILLER_0_1_93
*663 FILLER_0_20_109
*664 FILLER_0_20_121
*665 FILLER_0_20_133
*666 FILLER_0_20_139
*667 FILLER_0_20_141
*668 FILLER_0_20_15
*669 FILLER_0_20_153
*670 FILLER_0_20_165
*671 FILLER_0_20_177
*672 FILLER_0_20_189
*673 FILLER_0_20_195
*674 FILLER_0_20_197
*675 FILLER_0_20_209
*676 FILLER_0_20_221
*677 FILLER_0_20_233
*678 FILLER_0_20_245
*679 FILLER_0_20_251
*680 FILLER_0_20_253
*681 FILLER_0_20_265
*682 FILLER_0_20_27
*683 FILLER_0_20_277
*684 FILLER_0_20_289
*685 FILLER_0_20_29
*686 FILLER_0_20_3
*687 FILLER_0_20_301
*688 FILLER_0_20_307
*689 FILLER_0_20_309
*690 FILLER_0_20_321
*691 FILLER_0_20_333
*692 FILLER_0_20_345
*693 FILLER_0_20_41
*694 FILLER_0_20_53
*695 FILLER_0_20_65
*696 FILLER_0_20_77
*697 FILLER_0_20_83
*698 FILLER_0_20_85
*699 FILLER_0_20_97
*700 FILLER_0_21_105
*701 FILLER_0_21_111
*702 FILLER_0_21_113
*703 FILLER_0_21_125
*704 FILLER_0_21_137
*705 FILLER_0_21_149
*706 FILLER_0_21_15
*707 FILLER_0_21_161
*708 FILLER_0_21_167
*709 FILLER_0_21_169
*710 FILLER_0_21_181
*711 FILLER_0_21_193
*712 FILLER_0_21_205
*713 FILLER_0_21_217
*714 FILLER_0_21_223
*715 FILLER_0_21_225
*716 FILLER_0_21_237
*717 FILLER_0_21_249
*718 FILLER_0_21_261
*719 FILLER_0_21_27
*720 FILLER_0_21_273
*721 FILLER_0_21_279
*722 FILLER_0_21_281
*723 FILLER_0_21_293
*724 FILLER_0_21_3
*725 FILLER_0_21_305
*726 FILLER_0_21_317
*727 FILLER_0_21_329
*728 FILLER_0_21_335
*729 FILLER_0_21_337
*730 FILLER_0_21_349
*731 FILLER_0_21_39
*732 FILLER_0_21_51
*733 FILLER_0_21_55
*734 FILLER_0_21_57
*735 FILLER_0_21_69
*736 FILLER_0_21_81
*737 FILLER_0_21_93
*738 FILLER_0_22_109
*739 FILLER_0_22_121
*740 FILLER_0_22_133
*741 FILLER_0_22_139
*742 FILLER_0_22_141
*743 FILLER_0_22_15
*744 FILLER_0_22_153
*745 FILLER_0_22_165
*746 FILLER_0_22_177
*747 FILLER_0_22_189
*748 FILLER_0_22_195
*749 FILLER_0_22_197
*750 FILLER_0_22_209
*751 FILLER_0_22_221
*752 FILLER_0_22_233
*753 FILLER_0_22_245
*754 FILLER_0_22_251
*755 FILLER_0_22_253
*756 FILLER_0_22_265
*757 FILLER_0_22_27
*758 FILLER_0_22_277
*759 FILLER_0_22_289
*760 FILLER_0_22_29
*761 FILLER_0_22_3
*762 FILLER_0_22_301
*763 FILLER_0_22_307
*764 FILLER_0_22_309
*765 FILLER_0_22_321
*766 FILLER_0_22_333
*767 FILLER_0_22_345
*768 FILLER_0_22_41
*769 FILLER_0_22_53
*770 FILLER_0_22_65
*771 FILLER_0_22_77
*772 FILLER_0_22_83
*773 FILLER_0_22_85
*774 FILLER_0_22_97
*775 FILLER_0_23_105
*776 FILLER_0_23_111
*777 FILLER_0_23_113
*778 FILLER_0_23_125
*779 FILLER_0_23_137
*780 FILLER_0_23_149
*781 FILLER_0_23_15
*782 FILLER_0_23_161
*783 FILLER_0_23_167
*784 FILLER_0_23_169
*785 FILLER_0_23_181
*786 FILLER_0_23_193
*787 FILLER_0_23_205
*788 FILLER_0_23_217
*789 FILLER_0_23_223
*790 FILLER_0_23_225
*791 FILLER_0_23_237
*792 FILLER_0_23_249
*793 FILLER_0_23_261
*794 FILLER_0_23_27
*795 FILLER_0_23_273
*796 FILLER_0_23_279
*797 FILLER_0_23_281
*798 FILLER_0_23_293
*799 FILLER_0_23_3
*800 FILLER_0_23_305
*801 FILLER_0_23_317
*802 FILLER_0_23_329
*803 FILLER_0_23_335
*804 FILLER_0_23_337
*805 FILLER_0_23_349
*806 FILLER_0_23_39
*807 FILLER_0_23_51
*808 FILLER_0_23_55
*809 FILLER_0_23_57
*810 FILLER_0_23_69
*811 FILLER_0_23_81
*812 FILLER_0_23_93
*813 FILLER_0_24_109
*814 FILLER_0_24_121
*815 FILLER_0_24_133
*816 FILLER_0_24_139
*817 FILLER_0_24_141
*818 FILLER_0_24_15
*819 FILLER_0_24_153
*820 FILLER_0_24_165
*821 FILLER_0_24_177
*822 FILLER_0_24_189
*823 FILLER_0_24_195
*824 FILLER_0_24_197
*825 FILLER_0_24_209
*826 FILLER_0_24_221
*827 FILLER_0_24_233
*828 FILLER_0_24_245
*829 FILLER_0_24_251
*830 FILLER_0_24_253
*831 FILLER_0_24_265
*832 FILLER_0_24_27
*833 FILLER_0_24_277
*834 FILLER_0_24_289
*835 FILLER_0_24_29
*836 FILLER_0_24_3
*837 FILLER_0_24_301
*838 FILLER_0_24_307
*839 FILLER_0_24_309
*840 FILLER_0_24_321
*841 FILLER_0_24_333
*842 FILLER_0_24_345
*843 FILLER_0_24_41
*844 FILLER_0_24_53
*845 FILLER_0_24_65
*846 FILLER_0_24_77
*847 FILLER_0_24_83
*848 FILLER_0_24_85
*849 FILLER_0_24_97
*850 FILLER_0_25_105
*851 FILLER_0_25_111
*852 FILLER_0_25_113
*853 FILLER_0_25_125
*854 FILLER_0_25_137
*855 FILLER_0_25_149
*856 FILLER_0_25_15
*857 FILLER_0_25_161
*858 FILLER_0_25_167
*859 FILLER_0_25_169
*860 FILLER_0_25_181
*861 FILLER_0_25_193
*862 FILLER_0_25_205
*863 FILLER_0_25_217
*864 FILLER_0_25_223
*865 FILLER_0_25_225
*866 FILLER_0_25_237
*867 FILLER_0_25_249
*868 FILLER_0_25_261
*869 FILLER_0_25_27
*870 FILLER_0_25_273
*871 FILLER_0_25_279
*872 FILLER_0_25_281
*873 FILLER_0_25_293
*874 FILLER_0_25_3
*875 FILLER_0_25_305
*876 FILLER_0_25_317
*877 FILLER_0_25_329
*878 FILLER_0_25_335
*879 FILLER_0_25_337
*880 FILLER_0_25_349
*881 FILLER_0_25_39
*882 FILLER_0_25_51
*883 FILLER_0_25_55
*884 FILLER_0_25_57
*885 FILLER_0_25_69
*886 FILLER_0_25_81
*887 FILLER_0_25_93
*888 FILLER_0_26_109
*889 FILLER_0_26_121
*890 FILLER_0_26_133
*891 FILLER_0_26_139
*892 FILLER_0_26_141
*893 FILLER_0_26_15
*894 FILLER_0_26_153
*895 FILLER_0_26_165
*896 FILLER_0_26_177
*897 FILLER_0_26_189
*898 FILLER_0_26_195
*899 FILLER_0_26_197
*900 FILLER_0_26_209
*901 FILLER_0_26_221
*902 FILLER_0_26_233
*903 FILLER_0_26_245
*904 FILLER_0_26_251
*905 FILLER_0_26_253
*906 FILLER_0_26_265
*907 FILLER_0_26_27
*908 FILLER_0_26_277
*909 FILLER_0_26_289
*910 FILLER_0_26_29
*911 FILLER_0_26_3
*912 FILLER_0_26_301
*913 FILLER_0_26_307
*914 FILLER_0_26_309
*915 FILLER_0_26_321
*916 FILLER_0_26_333
*917 FILLER_0_26_345
*918 FILLER_0_26_41
*919 FILLER_0_26_53
*920 FILLER_0_26_65
*921 FILLER_0_26_77
*922 FILLER_0_26_83
*923 FILLER_0_26_85
*924 FILLER_0_26_97
*925 FILLER_0_27_105
*926 FILLER_0_27_111
*927 FILLER_0_27_113
*928 FILLER_0_27_125
*929 FILLER_0_27_137
*930 FILLER_0_27_149
*931 FILLER_0_27_15
*932 FILLER_0_27_161
*933 FILLER_0_27_167
*934 FILLER_0_27_169
*935 FILLER_0_27_181
*936 FILLER_0_27_193
*937 FILLER_0_27_205
*938 FILLER_0_27_217
*939 FILLER_0_27_223
*940 FILLER_0_27_225
*941 FILLER_0_27_237
*942 FILLER_0_27_249
*943 FILLER_0_27_261
*944 FILLER_0_27_27
*945 FILLER_0_27_273
*946 FILLER_0_27_279
*947 FILLER_0_27_281
*948 FILLER_0_27_293
*949 FILLER_0_27_3
*950 FILLER_0_27_305
*951 FILLER_0_27_317
*952 FILLER_0_27_329
*953 FILLER_0_27_335
*954 FILLER_0_27_337
*955 FILLER_0_27_349
*956 FILLER_0_27_39
*957 FILLER_0_27_51
*958 FILLER_0_27_55
*959 FILLER_0_27_57
*960 FILLER_0_27_69
*961 FILLER_0_27_81
*962 FILLER_0_27_93
*963 FILLER_0_28_109
*964 FILLER_0_28_121
*965 FILLER_0_28_133
*966 FILLER_0_28_139
*967 FILLER_0_28_141
*968 FILLER_0_28_15
*969 FILLER_0_28_153
*970 FILLER_0_28_165
*971 FILLER_0_28_177
*972 FILLER_0_28_189
*973 FILLER_0_28_195
*974 FILLER_0_28_217
*975 FILLER_0_28_229
*976 FILLER_0_28_241
*977 FILLER_0_28_249
*978 FILLER_0_28_257
*979 FILLER_0_28_269
*980 FILLER_0_28_27
*981 FILLER_0_28_281
*982 FILLER_0_28_29
*983 FILLER_0_28_293
*984 FILLER_0_28_3
*985 FILLER_0_28_305
*986 FILLER_0_28_309
*987 FILLER_0_28_321
*988 FILLER_0_28_333
*989 FILLER_0_28_345
*990 FILLER_0_28_41
*991 FILLER_0_28_53
*992 FILLER_0_28_65
*993 FILLER_0_28_77
*994 FILLER_0_28_83
*995 FILLER_0_28_85
*996 FILLER_0_28_97
*997 FILLER_0_29_105
*998 FILLER_0_29_111
*999 FILLER_0_29_113
*1000 FILLER_0_29_125
*1001 FILLER_0_29_137
*1002 FILLER_0_29_149
*1003 FILLER_0_29_15
*1004 FILLER_0_29_161
*1005 FILLER_0_29_167
*1006 FILLER_0_29_169
*1007 FILLER_0_29_202
*1008 FILLER_0_29_206
*1009 FILLER_0_29_225
*1010 FILLER_0_29_231
*1011 FILLER_0_29_249
*1012 FILLER_0_29_268
*1013 FILLER_0_29_27
*1014 FILLER_0_29_272
*1015 FILLER_0_29_281
*1016 FILLER_0_29_293
*1017 FILLER_0_29_3
*1018 FILLER_0_29_305
*1019 FILLER_0_29_313
*1020 FILLER_0_29_319
*1021 FILLER_0_29_331
*1022 FILLER_0_29_335
*1023 FILLER_0_29_337
*1024 FILLER_0_29_349
*1025 FILLER_0_29_39
*1026 FILLER_0_29_51
*1027 FILLER_0_29_55
*1028 FILLER_0_29_57
*1029 FILLER_0_29_69
*1030 FILLER_0_29_81
*1031 FILLER_0_29_93
*1032 FILLER_0_2_109
*1033 FILLER_0_2_121
*1034 FILLER_0_2_133
*1035 FILLER_0_2_139
*1036 FILLER_0_2_141
*1037 FILLER_0_2_15
*1038 FILLER_0_2_153
*1039 FILLER_0_2_165
*1040 FILLER_0_2_177
*1041 FILLER_0_2_189
*1042 FILLER_0_2_195
*1043 FILLER_0_2_197
*1044 FILLER_0_2_209
*1045 FILLER_0_2_221
*1046 FILLER_0_2_233
*1047 FILLER_0_2_245
*1048 FILLER_0_2_251
*1049 FILLER_0_2_253
*1050 FILLER_0_2_265
*1051 FILLER_0_2_27
*1052 FILLER_0_2_277
*1053 FILLER_0_2_289
*1054 FILLER_0_2_29
*1055 FILLER_0_2_3
*1056 FILLER_0_2_301
*1057 FILLER_0_2_307
*1058 FILLER_0_2_309
*1059 FILLER_0_2_321
*1060 FILLER_0_2_333
*1061 FILLER_0_2_345
*1062 FILLER_0_2_41
*1063 FILLER_0_2_53
*1064 FILLER_0_2_65
*1065 FILLER_0_2_77
*1066 FILLER_0_2_83
*1067 FILLER_0_2_85
*1068 FILLER_0_2_97
*1069 FILLER_0_30_109
*1070 FILLER_0_30_121
*1071 FILLER_0_30_133
*1072 FILLER_0_30_139
*1073 FILLER_0_30_141
*1074 FILLER_0_30_147
*1075 FILLER_0_30_15
*1076 FILLER_0_30_155
*1077 FILLER_0_30_178
*1078 FILLER_0_30_184
*1079 FILLER_0_30_189
*1080 FILLER_0_30_195
*1081 FILLER_0_30_205
*1082 FILLER_0_30_216
*1083 FILLER_0_30_226
*1084 FILLER_0_30_248
*1085 FILLER_0_30_257
*1086 FILLER_0_30_269
*1087 FILLER_0_30_27
*1088 FILLER_0_30_286
*1089 FILLER_0_30_29
*1090 FILLER_0_30_3
*1091 FILLER_0_30_305
*1092 FILLER_0_30_328
*1093 FILLER_0_30_340
*1094 FILLER_0_30_348
*1095 FILLER_0_30_41
*1096 FILLER_0_30_53
*1097 FILLER_0_30_65
*1098 FILLER_0_30_77
*1099 FILLER_0_30_83
*1100 FILLER_0_30_85
*1101 FILLER_0_30_97
*1102 FILLER_0_31_105
*1103 FILLER_0_31_111
*1104 FILLER_0_31_113
*1105 FILLER_0_31_125
*1106 FILLER_0_31_137
*1107 FILLER_0_31_15
*1108 FILLER_0_31_162
*1109 FILLER_0_31_169
*1110 FILLER_0_31_187
*1111 FILLER_0_31_196
*1112 FILLER_0_31_200
*1113 FILLER_0_31_215
*1114 FILLER_0_31_223
*1115 FILLER_0_31_225
*1116 FILLER_0_31_236
*1117 FILLER_0_31_248
*1118 FILLER_0_31_260
*1119 FILLER_0_31_27
*1120 FILLER_0_31_273
*1121 FILLER_0_31_279
*1122 FILLER_0_31_281
*1123 FILLER_0_31_292
*1124 FILLER_0_31_3
*1125 FILLER_0_31_304
*1126 FILLER_0_31_316
*1127 FILLER_0_31_328
*1128 FILLER_0_31_337
*1129 FILLER_0_31_349
*1130 FILLER_0_31_39
*1131 FILLER_0_31_51
*1132 FILLER_0_31_55
*1133 FILLER_0_31_57
*1134 FILLER_0_31_69
*1135 FILLER_0_31_81
*1136 FILLER_0_31_93
*1137 FILLER_0_32_109
*1138 FILLER_0_32_121
*1139 FILLER_0_32_133
*1140 FILLER_0_32_139
*1141 FILLER_0_32_141
*1142 FILLER_0_32_15
*1143 FILLER_0_32_153
*1144 FILLER_0_32_166
*1145 FILLER_0_32_178
*1146 FILLER_0_32_190
*1147 FILLER_0_32_208
*1148 FILLER_0_32_214
*1149 FILLER_0_32_222
*1150 FILLER_0_32_227
*1151 FILLER_0_32_239
*1152 FILLER_0_32_251
*1153 FILLER_0_32_260
*1154 FILLER_0_32_264
*1155 FILLER_0_32_27
*1156 FILLER_0_32_276
*1157 FILLER_0_32_29
*1158 FILLER_0_32_3
*1159 FILLER_0_32_300
*1160 FILLER_0_32_331
*1161 FILLER_0_32_343
*1162 FILLER_0_32_41
*1163 FILLER_0_32_53
*1164 FILLER_0_32_65
*1165 FILLER_0_32_77
*1166 FILLER_0_32_83
*1167 FILLER_0_32_85
*1168 FILLER_0_32_97
*1169 FILLER_0_33_105
*1170 FILLER_0_33_111
*1171 FILLER_0_33_113
*1172 FILLER_0_33_125
*1173 FILLER_0_33_137
*1174 FILLER_0_33_145
*1175 FILLER_0_33_15
*1176 FILLER_0_33_155
*1177 FILLER_0_33_161
*1178 FILLER_0_33_167
*1179 FILLER_0_33_169
*1180 FILLER_0_33_185
*1181 FILLER_0_33_197
*1182 FILLER_0_33_209
*1183 FILLER_0_33_216
*1184 FILLER_0_33_225
*1185 FILLER_0_33_244
*1186 FILLER_0_33_253
*1187 FILLER_0_33_27
*1188 FILLER_0_33_276
*1189 FILLER_0_33_281
*1190 FILLER_0_33_285
*1191 FILLER_0_33_3
*1192 FILLER_0_33_301
*1193 FILLER_0_33_313
*1194 FILLER_0_33_324
*1195 FILLER_0_33_337
*1196 FILLER_0_33_349
*1197 FILLER_0_33_39
*1198 FILLER_0_33_51
*1199 FILLER_0_33_55
*1200 FILLER_0_33_57
*1201 FILLER_0_33_69
*1202 FILLER_0_33_81
*1203 FILLER_0_33_93
*1204 FILLER_0_34_109
*1205 FILLER_0_34_121
*1206 FILLER_0_34_133
*1207 FILLER_0_34_139
*1208 FILLER_0_34_15
*1209 FILLER_0_34_169
*1210 FILLER_0_34_177
*1211 FILLER_0_34_185
*1212 FILLER_0_34_197
*1213 FILLER_0_34_205
*1214 FILLER_0_34_223
*1215 FILLER_0_34_231
*1216 FILLER_0_34_243
*1217 FILLER_0_34_251
*1218 FILLER_0_34_27
*1219 FILLER_0_34_277
*1220 FILLER_0_34_283
*1221 FILLER_0_34_29
*1222 FILLER_0_34_291
*1223 FILLER_0_34_3
*1224 FILLER_0_34_303
*1225 FILLER_0_34_307
*1226 FILLER_0_34_312
*1227 FILLER_0_34_324
*1228 FILLER_0_34_332
*1229 FILLER_0_34_41
*1230 FILLER_0_34_53
*1231 FILLER_0_34_65
*1232 FILLER_0_34_77
*1233 FILLER_0_34_83
*1234 FILLER_0_34_85
*1235 FILLER_0_34_97
*1236 FILLER_0_35_105
*1237 FILLER_0_35_111
*1238 FILLER_0_35_113
*1239 FILLER_0_35_125
*1240 FILLER_0_35_137
*1241 FILLER_0_35_15
*1242 FILLER_0_35_153
*1243 FILLER_0_35_180
*1244 FILLER_0_35_189
*1245 FILLER_0_35_201
*1246 FILLER_0_35_211
*1247 FILLER_0_35_223
*1248 FILLER_0_35_225
*1249 FILLER_0_35_241
*1250 FILLER_0_35_252
*1251 FILLER_0_35_256
*1252 FILLER_0_35_261
*1253 FILLER_0_35_27
*1254 FILLER_0_35_281
*1255 FILLER_0_35_287
*1256 FILLER_0_35_295
*1257 FILLER_0_35_3
*1258 FILLER_0_35_301
*1259 FILLER_0_35_321
*1260 FILLER_0_35_335
*1261 FILLER_0_35_345
*1262 FILLER_0_35_39
*1263 FILLER_0_35_51
*1264 FILLER_0_35_55
*1265 FILLER_0_35_57
*1266 FILLER_0_35_69
*1267 FILLER_0_35_81
*1268 FILLER_0_35_93
*1269 FILLER_0_36_109
*1270 FILLER_0_36_121
*1271 FILLER_0_36_133
*1272 FILLER_0_36_139
*1273 FILLER_0_36_15
*1274 FILLER_0_36_158
*1275 FILLER_0_36_172
*1276 FILLER_0_36_184
*1277 FILLER_0_36_194
*1278 FILLER_0_36_200
*1279 FILLER_0_36_208
*1280 FILLER_0_36_220
*1281 FILLER_0_36_232
*1282 FILLER_0_36_244
*1283 FILLER_0_36_251
*1284 FILLER_0_36_253
*1285 FILLER_0_36_261
*1286 FILLER_0_36_27
*1287 FILLER_0_36_278
*1288 FILLER_0_36_282
*1289 FILLER_0_36_286
*1290 FILLER_0_36_29
*1291 FILLER_0_36_298
*1292 FILLER_0_36_3
*1293 FILLER_0_36_306
*1294 FILLER_0_36_316
*1295 FILLER_0_36_328
*1296 FILLER_0_36_332
*1297 FILLER_0_36_350
*1298 FILLER_0_36_41
*1299 FILLER_0_36_53
*1300 FILLER_0_36_65
*1301 FILLER_0_36_77
*1302 FILLER_0_36_83
*1303 FILLER_0_36_85
*1304 FILLER_0_36_97
*1305 FILLER_0_37_105
*1306 FILLER_0_37_111
*1307 FILLER_0_37_113
*1308 FILLER_0_37_125
*1309 FILLER_0_37_137
*1310 FILLER_0_37_145
*1311 FILLER_0_37_15
*1312 FILLER_0_37_150
*1313 FILLER_0_37_162
*1314 FILLER_0_37_180
*1315 FILLER_0_37_193
*1316 FILLER_0_37_205
*1317 FILLER_0_37_217
*1318 FILLER_0_37_27
*1319 FILLER_0_37_281
*1320 FILLER_0_37_290
*1321 FILLER_0_37_3
*1322 FILLER_0_37_301
*1323 FILLER_0_37_321
*1324 FILLER_0_37_340
*1325 FILLER_0_37_348
*1326 FILLER_0_37_39
*1327 FILLER_0_37_51
*1328 FILLER_0_37_55
*1329 FILLER_0_37_57
*1330 FILLER_0_37_69
*1331 FILLER_0_37_81
*1332 FILLER_0_37_93
*1333 FILLER_0_38_102
*1334 FILLER_0_38_106
*1335 FILLER_0_38_110
*1336 FILLER_0_38_113
*1337 FILLER_0_38_118
*1338 FILLER_0_38_122
*1339 FILLER_0_38_126
*1340 FILLER_0_38_130
*1341 FILLER_0_38_134
*1342 FILLER_0_38_14
*1343 FILLER_0_38_141
*1344 FILLER_0_38_148
*1345 FILLER_0_38_154
*1346 FILLER_0_38_159
*1347 FILLER_0_38_166
*1348 FILLER_0_38_169
*1349 FILLER_0_38_176
*1350 FILLER_0_38_18
*1351 FILLER_0_38_183
*1352 FILLER_0_38_191
*1353 FILLER_0_38_195
*1354 FILLER_0_38_210
*1355 FILLER_0_38_218
*1356 FILLER_0_38_22
*1357 FILLER_0_38_223
*1358 FILLER_0_38_250
*1359 FILLER_0_38_257
*1360 FILLER_0_38_269
*1361 FILLER_0_38_278
*1362 FILLER_0_38_295
*1363 FILLER_0_38_3
*1364 FILLER_0_38_303
*1365 FILLER_0_38_307
*1366 FILLER_0_38_313
*1367 FILLER_0_38_319
*1368 FILLER_0_38_32
*1369 FILLER_0_38_327
*1370 FILLER_0_38_334
*1371 FILLER_0_38_344
*1372 FILLER_0_38_350
*1373 FILLER_0_38_38
*1374 FILLER_0_38_42
*1375 FILLER_0_38_46
*1376 FILLER_0_38_50
*1377 FILLER_0_38_54
*1378 FILLER_0_38_57
*1379 FILLER_0_38_62
*1380 FILLER_0_38_66
*1381 FILLER_0_38_70
*1382 FILLER_0_38_74
*1383 FILLER_0_38_78
*1384 FILLER_0_38_88
*1385 FILLER_0_38_94
*1386 FILLER_0_38_98
*1387 FILLER_0_3_105
*1388 FILLER_0_3_111
*1389 FILLER_0_3_113
*1390 FILLER_0_3_125
*1391 FILLER_0_3_137
*1392 FILLER_0_3_149
*1393 FILLER_0_3_15
*1394 FILLER_0_3_161
*1395 FILLER_0_3_167
*1396 FILLER_0_3_169
*1397 FILLER_0_3_181
*1398 FILLER_0_3_193
*1399 FILLER_0_3_205
*1400 FILLER_0_3_217
*1401 FILLER_0_3_223
*1402 FILLER_0_3_225
*1403 FILLER_0_3_237
*1404 FILLER_0_3_249
*1405 FILLER_0_3_261
*1406 FILLER_0_3_27
*1407 FILLER_0_3_273
*1408 FILLER_0_3_279
*1409 FILLER_0_3_281
*1410 FILLER_0_3_293
*1411 FILLER_0_3_3
*1412 FILLER_0_3_305
*1413 FILLER_0_3_317
*1414 FILLER_0_3_329
*1415 FILLER_0_3_335
*1416 FILLER_0_3_337
*1417 FILLER_0_3_349
*1418 FILLER_0_3_39
*1419 FILLER_0_3_51
*1420 FILLER_0_3_55
*1421 FILLER_0_3_57
*1422 FILLER_0_3_69
*1423 FILLER_0_3_81
*1424 FILLER_0_3_93
*1425 FILLER_0_4_109
*1426 FILLER_0_4_121
*1427 FILLER_0_4_133
*1428 FILLER_0_4_139
*1429 FILLER_0_4_141
*1430 FILLER_0_4_15
*1431 FILLER_0_4_153
*1432 FILLER_0_4_165
*1433 FILLER_0_4_177
*1434 FILLER_0_4_189
*1435 FILLER_0_4_195
*1436 FILLER_0_4_197
*1437 FILLER_0_4_209
*1438 FILLER_0_4_221
*1439 FILLER_0_4_233
*1440 FILLER_0_4_245
*1441 FILLER_0_4_251
*1442 FILLER_0_4_253
*1443 FILLER_0_4_265
*1444 FILLER_0_4_27
*1445 FILLER_0_4_277
*1446 FILLER_0_4_289
*1447 FILLER_0_4_29
*1448 FILLER_0_4_3
*1449 FILLER_0_4_301
*1450 FILLER_0_4_307
*1451 FILLER_0_4_309
*1452 FILLER_0_4_321
*1453 FILLER_0_4_333
*1454 FILLER_0_4_345
*1455 FILLER_0_4_41
*1456 FILLER_0_4_53
*1457 FILLER_0_4_65
*1458 FILLER_0_4_77
*1459 FILLER_0_4_83
*1460 FILLER_0_4_85
*1461 FILLER_0_4_97
*1462 FILLER_0_5_105
*1463 FILLER_0_5_111
*1464 FILLER_0_5_113
*1465 FILLER_0_5_125
*1466 FILLER_0_5_137
*1467 FILLER_0_5_149
*1468 FILLER_0_5_15
*1469 FILLER_0_5_161
*1470 FILLER_0_5_167
*1471 FILLER_0_5_169
*1472 FILLER_0_5_181
*1473 FILLER_0_5_193
*1474 FILLER_0_5_205
*1475 FILLER_0_5_217
*1476 FILLER_0_5_223
*1477 FILLER_0_5_225
*1478 FILLER_0_5_237
*1479 FILLER_0_5_249
*1480 FILLER_0_5_261
*1481 FILLER_0_5_27
*1482 FILLER_0_5_273
*1483 FILLER_0_5_279
*1484 FILLER_0_5_281
*1485 FILLER_0_5_293
*1486 FILLER_0_5_3
*1487 FILLER_0_5_305
*1488 FILLER_0_5_317
*1489 FILLER_0_5_329
*1490 FILLER_0_5_335
*1491 FILLER_0_5_337
*1492 FILLER_0_5_349
*1493 FILLER_0_5_39
*1494 FILLER_0_5_51
*1495 FILLER_0_5_55
*1496 FILLER_0_5_57
*1497 FILLER_0_5_69
*1498 FILLER_0_5_81
*1499 FILLER_0_5_93