*SPEF "ieee 1481-1999"
*DESIGN "tt_um_CPU"
*DATE "11:11:11 Fri 11 11, 1111"
*VENDOR "OpenRCX"
*PROGRAM "Parallel Extraction"
*VERSION "1.0"
*DESIGN_FLOW "NAME_SCOPE LOCAL" "PIN_CAP NONE"
*DIVIDER /
*DELIMITER :
*BUS_DELIMITER []
*T_UNIT 1 NS
*C_UNIT 1 PF
*R_UNIT 1 OHM
*L_UNIT 1 HENRY

*NAME_MAP
*3 clk
*4 ena
*5 rst_n
*6 ui_in[0]
*7 ui_in[1]
*8 ui_in[2]
*9 ui_in[3]
*10 ui_in[4]
*11 ui_in[5]
*12 ui_in[6]
*13 ui_in[7]
*14 uio_in[0]
*15 uio_in[1]
*16 uio_in[2]
*17 uio_in[3]
*18 uio_in[4]
*19 uio_in[5]
*20 uio_in[6]
*21 uio_in[7]
*22 net10
*23 net11
*24 net12
*25 net13
*26 net14
*27 net15
*28 net16
*29 net17
*30 uio_out[0]
*31 uio_out[1]
*32 uio_out[2]
*33 uio_out[3]
*34 uio_out[4]
*35 uio_out[5]
*36 uio_out[6]
*37 uio_out[7]
*38 uo_out[0]
*39 uo_out[1]
*40 uo_out[2]
*41 uo_out[3]
*42 uo_out[4]
*43 uo_out[5]
*44 uo_out[6]
*45 uo_out[7]
*46 CPU8BIT\.A\[0\]
*47 CPU8BIT\.A\[1\]
*48 CPU8BIT\.A\[2\]
*49 CPU8BIT\.A\[3\]
*50 CPU8BIT\.A\[4\]
*51 CPU8BIT\.A\[5\]
*52 CPU8BIT\.A\[6\]
*53 CPU8BIT\.A\[7\]
*54 CPU8BIT\.B\[0\]
*55 CPU8BIT\.B\[1\]
*56 CPU8BIT\.B\[2\]
*57 CPU8BIT\.B\[3\]
*58 CPU8BIT\.B\[4\]
*59 CPU8BIT\.B\[5\]
*60 CPU8BIT\.B\[6\]
*61 CPU8BIT\.B\[7\]
*62 CPU8BIT\.B_or_data
*63 CPU8BIT\.IP\[0\]
*64 CPU8BIT\.IP\[1\]
*65 CPU8BIT\.IP\[2\]
*66 CPU8BIT\.IP\[3\]
*67 CPU8BIT\.IP\[4\]
*68 CPU8BIT\.IP\[5\]
*69 CPU8BIT\.IP\[6\]
*70 CPU8BIT\.alu\.aluop\[0\]
*71 CPU8BIT\.alu\.aluop\[1\]
*72 CPU8BIT\.alu\.aluop\[2\]
*73 CPU8BIT\.alu\.aluop\[3\]
*74 CPU8BIT\.alu\.carry
*75 CPU8BIT\.opcode\[4\]
*76 CPU8BIT\.opcode\[5\]
*77 CPU8BIT\.state\[0\]
*78 CPU8BIT\.state\[1\]
*79 CPU8BIT\.state\[2\]
*80 CPU8BIT\.state\[3\]
*81 CPU8BIT\.state\[4\]
*82 CPU8BIT\.write
*83 CPU8BIT\.zero
*84 _000_
*85 _001_
*86 _002_
*87 _003_
*88 _004_
*89 _005_
*90 _006_
*91 _007_
*92 _008_
*93 _009_
*94 _010_
*95 _011_
*96 _012_
*97 _013_
*98 _014_
*99 _015_
*100 _016_
*101 _017_
*102 _018_
*103 _019_
*104 _020_
*105 _021_
*106 _022_
*107 _023_
*108 _024_
*109 _025_
*110 _026_
*111 _027_
*112 _028_
*113 _029_
*114 _030_
*115 _031_
*116 _032_
*117 _033_
*118 _034_
*119 _035_
*120 _036_
*121 _037_
*122 _038_
*123 _039_
*124 _040_
*125 _041_
*126 _042_
*127 _043_
*128 _044_
*129 _045_
*130 _046_
*131 _047_
*132 _048_
*133 _049_
*134 _050_
*135 _051_
*136 _052_
*137 _053_
*138 _054_
*139 _055_
*140 _056_
*141 _057_
*142 _058_
*143 _059_
*144 _060_
*145 _061_
*146 _062_
*147 _063_
*148 _064_
*149 _065_
*150 _066_
*151 _067_
*152 _068_
*153 _069_
*154 _070_
*155 _071_
*156 _072_
*157 _073_
*158 _074_
*159 _075_
*160 _076_
*161 _077_
*162 _078_
*163 _079_
*164 _080_
*165 _081_
*166 _082_
*167 _083_
*168 _084_
*169 _085_
*170 _086_
*171 _087_
*172 _088_
*173 _089_
*174 _090_
*175 _091_
*176 _092_
*177 _093_
*178 _094_
*179 _095_
*180 _096_
*181 _097_
*182 _098_
*183 _099_
*184 _100_
*185 _101_
*186 _102_
*187 _103_
*188 _104_
*189 _105_
*190 _106_
*191 _107_
*192 _108_
*193 _109_
*194 _110_
*195 _111_
*196 _112_
*197 _113_
*198 _114_
*199 _115_
*200 _116_
*201 _117_
*202 _118_
*203 _119_
*204 _120_
*205 _121_
*206 _122_
*207 _123_
*208 _124_
*209 _125_
*210 _126_
*211 _127_
*212 _128_
*213 _129_
*214 _130_
*215 _131_
*216 _132_
*217 _133_
*218 _134_
*219 _135_
*220 _136_
*221 _137_
*222 _138_
*223 _139_
*224 _140_
*225 _141_
*226 _142_
*227 _143_
*228 _144_
*229 _145_
*230 _146_
*231 _147_
*232 _148_
*233 _149_
*234 _150_
*235 _151_
*236 _152_
*237 _153_
*238 _154_
*239 _155_
*240 _156_
*241 _157_
*242 _158_
*243 _159_
*244 _160_
*245 _161_
*246 _162_
*247 _163_
*248 _164_
*249 _165_
*250 _166_
*251 _167_
*252 _168_
*253 _169_
*254 _170_
*255 _171_
*256 _172_
*257 _173_
*258 _174_
*259 _175_
*260 _176_
*261 _177_
*262 _178_
*263 _179_
*264 _180_
*265 _181_
*266 _182_
*267 _183_
*268 _184_
*269 _185_
*270 _186_
*271 _187_
*272 _188_
*273 _189_
*274 _190_
*275 _191_
*276 _192_
*277 _193_
*278 _194_
*279 _195_
*280 _196_
*281 _197_
*282 _198_
*283 _199_
*284 _200_
*285 _201_
*286 _202_
*287 _203_
*288 _204_
*289 _205_
*290 _206_
*291 _207_
*292 _208_
*293 _209_
*294 _210_
*295 _211_
*296 _212_
*297 _213_
*298 _214_
*299 _215_
*300 _216_
*301 _217_
*302 _218_
*303 _219_
*304 _220_
*305 _221_
*306 _222_
*307 _223_
*308 _224_
*309 _225_
*310 _226_
*311 _227_
*312 _228_
*313 _229_
*314 _230_
*315 _231_
*316 _232_
*317 _233_
*318 _234_
*319 _235_
*320 _236_
*321 _237_
*322 _238_
*323 _239_
*324 _240_
*325 _241_
*326 _242_
*327 _243_
*328 _244_
*329 _245_
*330 _246_
*331 _247_
*332 _248_
*333 _249_
*334 _250_
*335 _251_
*336 _252_
*337 _253_
*338 _254_
*339 _255_
*340 _256_
*341 _257_
*342 _258_
*343 _259_
*344 _260_
*345 _261_
*346 _262_
*347 _263_
*348 _264_
*349 _265_
*350 _266_
*351 _267_
*352 _268_
*353 _269_
*354 _270_
*355 _271_
*356 _272_
*357 _273_
*358 _274_
*359 _275_
*360 _276_
*361 _277_
*362 _278_
*363 _279_
*364 _280_
*365 _281_
*366 _282_
*367 _283_
*368 _284_
*369 _285_
*370 _286_
*371 _287_
*372 _288_
*373 _289_
*374 _290_
*375 _291_
*376 _292_
*377 _293_
*378 _294_
*379 _295_
*380 _296_
*381 _297_
*382 _298_
*383 _299_
*384 _300_
*385 _301_
*386 _302_
*387 _303_
*388 _304_
*389 _305_
*390 _306_
*391 _307_
*392 _308_
*393 _309_
*394 _310_
*395 _311_
*396 _312_
*397 _313_
*398 _314_
*399 _315_
*400 _316_
*401 _317_
*402 _318_
*403 _319_
*404 _320_
*405 _321_
*406 _322_
*407 _323_
*408 _324_
*409 _325_
*410 _326_
*411 _327_
*412 _328_
*413 _329_
*414 _330_
*415 _331_
*416 _332_
*417 _333_
*418 _334_
*419 _335_
*420 _336_
*421 _337_
*422 _338_
*423 _339_
*424 _340_
*425 _341_
*426 _342_
*427 _343_
*428 _344_
*429 _345_
*430 _346_
*431 _347_
*432 _348_
*433 _349_
*434 _350_
*435 _351_
*436 _352_
*437 _353_
*438 _354_
*439 _355_
*440 _356_
*441 _357_
*442 _358_
*443 _359_
*444 _360_
*445 _361_
*446 _362_
*447 _363_
*448 _364_
*449 _365_
*450 _366_
*451 _367_
*452 _368_
*453 _369_
*454 _370_
*455 _371_
*456 _372_
*457 _373_
*458 _374_
*459 _375_
*460 _376_
*461 _377_
*462 _378_
*463 _379_
*464 _380_
*465 _381_
*466 _382_
*467 _383_
*468 _384_
*469 _385_
*470 _386_
*471 _387_
*472 _388_
*473 _389_
*474 _390_
*475 _391_
*476 _392_
*477 _393_
*478 _394_
*479 _395_
*480 _396_
*481 _397_
*482 _398_
*483 _399_
*484 _400_
*485 _401_
*486 _402_
*487 _403_
*488 _404_
*489 _405_
*490 _406_
*491 _407_
*492 _408_
*493 _409_
*494 _410_
*495 _411_
*496 _412_
*497 _413_
*498 _414_
*499 _415_
*500 _416_
*501 _417_
*502 _418_
*503 _419_
*504 _420_
*505 _421_
*506 _422_
*507 _423_
*508 _424_
*509 _425_
*510 _426_
*511 _427_
*512 _428_
*513 _429_
*514 _430_
*515 _431_
*516 _432_
*517 _433_
*518 _434_
*519 _435_
*520 _436_
*521 _437_
*522 _438_
*523 _439_
*524 _440_
*525 _441_
*526 _442_
*527 _443_
*528 _444_
*529 _445_
*530 _446_
*531 _447_
*532 _448_
*533 _449_
*534 clknet_0_clk
*535 clknet_2_0__leaf_clk
*536 clknet_2_1__leaf_clk
*537 clknet_2_2__leaf_clk
*538 clknet_2_3__leaf_clk
*539 net1
*540 net18
*541 net19
*542 net2
*543 net20
*544 net21
*545 net22
*546 net23
*547 net24
*548 net25
*549 net26
*550 net27
*551 net28
*552 net29
*553 net3
*554 net30
*555 net31
*556 net32
*557 net4
*558 net5
*559 net6
*560 net7
*561 net8
*562 net9
*563 FILLER_0_0_109
*564 FILLER_0_0_113
*565 FILLER_0_0_125
*566 FILLER_0_0_137
*567 FILLER_0_0_141
*568 FILLER_0_0_15
*569 FILLER_0_0_153
*570 FILLER_0_0_165
*571 FILLER_0_0_169
*572 FILLER_0_0_181
*573 FILLER_0_0_193
*574 FILLER_0_0_197
*575 FILLER_0_0_209
*576 FILLER_0_0_221
*577 FILLER_0_0_225
*578 FILLER_0_0_237
*579 FILLER_0_0_249
*580 FILLER_0_0_253
*581 FILLER_0_0_265
*582 FILLER_0_0_27
*583 FILLER_0_0_277
*584 FILLER_0_0_281
*585 FILLER_0_0_29
*586 FILLER_0_0_293
*587 FILLER_0_0_3
*588 FILLER_0_0_305
*589 FILLER_0_0_309
*590 FILLER_0_0_321
*591 FILLER_0_0_333
*592 FILLER_0_0_337
*593 FILLER_0_0_349
*594 FILLER_0_0_41
*595 FILLER_0_0_53
*596 FILLER_0_0_57
*597 FILLER_0_0_69
*598 FILLER_0_0_81
*599 FILLER_0_0_85
*600 FILLER_0_0_97
*601 FILLER_0_10_109
*602 FILLER_0_10_121
*603 FILLER_0_10_133
*604 FILLER_0_10_139
*605 FILLER_0_10_141
*606 FILLER_0_10_15
*607 FILLER_0_10_153
*608 FILLER_0_10_165
*609 FILLER_0_10_177
*610 FILLER_0_10_189
*611 FILLER_0_10_195
*612 FILLER_0_10_197
*613 FILLER_0_10_209
*614 FILLER_0_10_221
*615 FILLER_0_10_233
*616 FILLER_0_10_245
*617 FILLER_0_10_251
*618 FILLER_0_10_253
*619 FILLER_0_10_265
*620 FILLER_0_10_27
*621 FILLER_0_10_277
*622 FILLER_0_10_289
*623 FILLER_0_10_29
*624 FILLER_0_10_3
*625 FILLER_0_10_301
*626 FILLER_0_10_307
*627 FILLER_0_10_309
*628 FILLER_0_10_321
*629 FILLER_0_10_333
*630 FILLER_0_10_345
*631 FILLER_0_10_41
*632 FILLER_0_10_53
*633 FILLER_0_10_65
*634 FILLER_0_10_77
*635 FILLER_0_10_83
*636 FILLER_0_10_85
*637 FILLER_0_10_97
*638 FILLER_0_11_105
*639 FILLER_0_11_111
*640 FILLER_0_11_113
*641 FILLER_0_11_125
*642 FILLER_0_11_137
*643 FILLER_0_11_149
*644 FILLER_0_11_15
*645 FILLER_0_11_161
*646 FILLER_0_11_167
*647 FILLER_0_11_169
*648 FILLER_0_11_181
*649 FILLER_0_11_193
*650 FILLER_0_11_205
*651 FILLER_0_11_217
*652 FILLER_0_11_223
*653 FILLER_0_11_225
*654 FILLER_0_11_237
*655 FILLER_0_11_249
*656 FILLER_0_11_261
*657 FILLER_0_11_27
*658 FILLER_0_11_273
*659 FILLER_0_11_279
*660 FILLER_0_11_281
*661 FILLER_0_11_293
*662 FILLER_0_11_3
*663 FILLER_0_11_305
*664 FILLER_0_11_317
*665 FILLER_0_11_329
*666 FILLER_0_11_335
*667 FILLER_0_11_337
*668 FILLER_0_11_349
*669 FILLER_0_11_39
*670 FILLER_0_11_51
*671 FILLER_0_11_55
*672 FILLER_0_11_57
*673 FILLER_0_11_69
*674 FILLER_0_11_81
*675 FILLER_0_11_93
*676 FILLER_0_12_109
*677 FILLER_0_12_121
*678 FILLER_0_12_133
*679 FILLER_0_12_139
*680 FILLER_0_12_141
*681 FILLER_0_12_15
*682 FILLER_0_12_153
*683 FILLER_0_12_165
*684 FILLER_0_12_177
*685 FILLER_0_12_189
*686 FILLER_0_12_195
*687 FILLER_0_12_197
*688 FILLER_0_12_209
*689 FILLER_0_12_221
*690 FILLER_0_12_233
*691 FILLER_0_12_245
*692 FILLER_0_12_251
*693 FILLER_0_12_253
*694 FILLER_0_12_265
*695 FILLER_0_12_27
*696 FILLER_0_12_277
*697 FILLER_0_12_289
*698 FILLER_0_12_29
*699 FILLER_0_12_3
*700 FILLER_0_12_301
*701 FILLER_0_12_307
*702 FILLER_0_12_309
*703 FILLER_0_12_321
*704 FILLER_0_12_333
*705 FILLER_0_12_345
*706 FILLER_0_12_41
*707 FILLER_0_12_53
*708 FILLER_0_12_65
*709 FILLER_0_12_77
*710 FILLER_0_12_83
*711 FILLER_0_12_85
*712 FILLER_0_12_97
*713 FILLER_0_13_105
*714 FILLER_0_13_111
*715 FILLER_0_13_113
*716 FILLER_0_13_125
*717 FILLER_0_13_137
*718 FILLER_0_13_149
*719 FILLER_0_13_15
*720 FILLER_0_13_161
*721 FILLER_0_13_167
*722 FILLER_0_13_169
*723 FILLER_0_13_181
*724 FILLER_0_13_193
*725 FILLER_0_13_205
*726 FILLER_0_13_217
*727 FILLER_0_13_223
*728 FILLER_0_13_225
*729 FILLER_0_13_237
*730 FILLER_0_13_249
*731 FILLER_0_13_261
*732 FILLER_0_13_27
*733 FILLER_0_13_273
*734 FILLER_0_13_279
*735 FILLER_0_13_281
*736 FILLER_0_13_293
*737 FILLER_0_13_3
*738 FILLER_0_13_305
*739 FILLER_0_13_317
*740 FILLER_0_13_329
*741 FILLER_0_13_335
*742 FILLER_0_13_337
*743 FILLER_0_13_349
*744 FILLER_0_13_39
*745 FILLER_0_13_51
*746 FILLER_0_13_55
*747 FILLER_0_13_57
*748 FILLER_0_13_69
*749 FILLER_0_13_81
*750 FILLER_0_13_93
*751 FILLER_0_14_109
*752 FILLER_0_14_121
*753 FILLER_0_14_133
*754 FILLER_0_14_139
*755 FILLER_0_14_141
*756 FILLER_0_14_15
*757 FILLER_0_14_153
*758 FILLER_0_14_167
*759 FILLER_0_14_179
*760 FILLER_0_14_191
*761 FILLER_0_14_195
*762 FILLER_0_14_197
*763 FILLER_0_14_209
*764 FILLER_0_14_221
*765 FILLER_0_14_233
*766 FILLER_0_14_245
*767 FILLER_0_14_251
*768 FILLER_0_14_253
*769 FILLER_0_14_265
*770 FILLER_0_14_27
*771 FILLER_0_14_277
*772 FILLER_0_14_289
*773 FILLER_0_14_29
*774 FILLER_0_14_3
*775 FILLER_0_14_301
*776 FILLER_0_14_307
*777 FILLER_0_14_309
*778 FILLER_0_14_321
*779 FILLER_0_14_333
*780 FILLER_0_14_345
*781 FILLER_0_14_41
*782 FILLER_0_14_53
*783 FILLER_0_14_65
*784 FILLER_0_14_77
*785 FILLER_0_14_83
*786 FILLER_0_14_85
*787 FILLER_0_14_97
*788 FILLER_0_15_105
*789 FILLER_0_15_111
*790 FILLER_0_15_113
*791 FILLER_0_15_125
*792 FILLER_0_15_137
*793 FILLER_0_15_149
*794 FILLER_0_15_15
*795 FILLER_0_15_157
*796 FILLER_0_15_165
*797 FILLER_0_15_186
*798 FILLER_0_15_197
*799 FILLER_0_15_205
*800 FILLER_0_15_220
*801 FILLER_0_15_225
*802 FILLER_0_15_235
*803 FILLER_0_15_247
*804 FILLER_0_15_259
*805 FILLER_0_15_27
*806 FILLER_0_15_271
*807 FILLER_0_15_279
*808 FILLER_0_15_281
*809 FILLER_0_15_293
*810 FILLER_0_15_3
*811 FILLER_0_15_305
*812 FILLER_0_15_317
*813 FILLER_0_15_329
*814 FILLER_0_15_335
*815 FILLER_0_15_337
*816 FILLER_0_15_349
*817 FILLER_0_15_39
*818 FILLER_0_15_51
*819 FILLER_0_15_55
*820 FILLER_0_15_57
*821 FILLER_0_15_69
*822 FILLER_0_15_81
*823 FILLER_0_15_93
*824 FILLER_0_16_113
*825 FILLER_0_16_121
*826 FILLER_0_16_125
*827 FILLER_0_16_15
*828 FILLER_0_16_152
*829 FILLER_0_16_160
*830 FILLER_0_16_166
*831 FILLER_0_16_178
*832 FILLER_0_16_190
*833 FILLER_0_16_208
*834 FILLER_0_16_220
*835 FILLER_0_16_226
*836 FILLER_0_16_235
*837 FILLER_0_16_244
*838 FILLER_0_16_251
*839 FILLER_0_16_253
*840 FILLER_0_16_263
*841 FILLER_0_16_27
*842 FILLER_0_16_275
*843 FILLER_0_16_287
*844 FILLER_0_16_29
*845 FILLER_0_16_299
*846 FILLER_0_16_3
*847 FILLER_0_16_307
*848 FILLER_0_16_309
*849 FILLER_0_16_321
*850 FILLER_0_16_333
*851 FILLER_0_16_345
*852 FILLER_0_16_41
*853 FILLER_0_16_53
*854 FILLER_0_16_65
*855 FILLER_0_16_77
*856 FILLER_0_16_83
*857 FILLER_0_16_85
*858 FILLER_0_16_97
*859 FILLER_0_17_110
*860 FILLER_0_17_113
*861 FILLER_0_17_121
*862 FILLER_0_17_130
*863 FILLER_0_17_142
*864 FILLER_0_17_15
*865 FILLER_0_17_154
*866 FILLER_0_17_164
*867 FILLER_0_17_169
*868 FILLER_0_17_179
*869 FILLER_0_17_185
*870 FILLER_0_17_189
*871 FILLER_0_17_195
*872 FILLER_0_17_202
*873 FILLER_0_17_222
*874 FILLER_0_17_225
*875 FILLER_0_17_231
*876 FILLER_0_17_235
*877 FILLER_0_17_252
*878 FILLER_0_17_264
*879 FILLER_0_17_27
*880 FILLER_0_17_276
*881 FILLER_0_17_281
*882 FILLER_0_17_289
*883 FILLER_0_17_293
*884 FILLER_0_17_3
*885 FILLER_0_17_305
*886 FILLER_0_17_317
*887 FILLER_0_17_329
*888 FILLER_0_17_335
*889 FILLER_0_17_337
*890 FILLER_0_17_349
*891 FILLER_0_17_39
*892 FILLER_0_17_51
*893 FILLER_0_17_55
*894 FILLER_0_17_57
*895 FILLER_0_17_69
*896 FILLER_0_17_90
*897 FILLER_0_17_98
*898 FILLER_0_18_105
*899 FILLER_0_18_127
*900 FILLER_0_18_139
*901 FILLER_0_18_15
*902 FILLER_0_18_158
*903 FILLER_0_18_173
*904 FILLER_0_18_195
*905 FILLER_0_18_197
*906 FILLER_0_18_205
*907 FILLER_0_18_215
*908 FILLER_0_18_242
*909 FILLER_0_18_250
*910 FILLER_0_18_253
*911 FILLER_0_18_257
*912 FILLER_0_18_27
*913 FILLER_0_18_276
*914 FILLER_0_18_29
*915 FILLER_0_18_3
*916 FILLER_0_18_301
*917 FILLER_0_18_307
*918 FILLER_0_18_309
*919 FILLER_0_18_321
*920 FILLER_0_18_333
*921 FILLER_0_18_345
*922 FILLER_0_18_41
*923 FILLER_0_18_53
*924 FILLER_0_18_61
*925 FILLER_0_18_65
*926 FILLER_0_18_77
*927 FILLER_0_18_83
*928 FILLER_0_18_93
*929 FILLER_0_19_103
*930 FILLER_0_19_111
*931 FILLER_0_19_113
*932 FILLER_0_19_123
*933 FILLER_0_19_134
*934 FILLER_0_19_144
*935 FILLER_0_19_15
*936 FILLER_0_19_152
*937 FILLER_0_19_161
*938 FILLER_0_19_169
*939 FILLER_0_19_181
*940 FILLER_0_19_192
*941 FILLER_0_19_204
*942 FILLER_0_19_222
*943 FILLER_0_19_225
*944 FILLER_0_19_231
*945 FILLER_0_19_249
*946 FILLER_0_19_27
*947 FILLER_0_19_272
*948 FILLER_0_19_281
*949 FILLER_0_19_293
*950 FILLER_0_19_3
*951 FILLER_0_19_305
*952 FILLER_0_19_317
*953 FILLER_0_19_329
*954 FILLER_0_19_335
*955 FILLER_0_19_337
*956 FILLER_0_19_349
*957 FILLER_0_19_39
*958 FILLER_0_19_43
*959 FILLER_0_19_53
*960 FILLER_0_19_57
*961 FILLER_0_19_73
*962 FILLER_0_1_105
*963 FILLER_0_1_111
*964 FILLER_0_1_113
*965 FILLER_0_1_125
*966 FILLER_0_1_137
*967 FILLER_0_1_149
*968 FILLER_0_1_15
*969 FILLER_0_1_161
*970 FILLER_0_1_167
*971 FILLER_0_1_169
*972 FILLER_0_1_181
*973 FILLER_0_1_193
*974 FILLER_0_1_205
*975 FILLER_0_1_217
*976 FILLER_0_1_223
*977 FILLER_0_1_225
*978 FILLER_0_1_237
*979 FILLER_0_1_249
*980 FILLER_0_1_261
*981 FILLER_0_1_27
*982 FILLER_0_1_273
*983 FILLER_0_1_279
*984 FILLER_0_1_281
*985 FILLER_0_1_293
*986 FILLER_0_1_3
*987 FILLER_0_1_305
*988 FILLER_0_1_317
*989 FILLER_0_1_329
*990 FILLER_0_1_335
*991 FILLER_0_1_337
*992 FILLER_0_1_349
*993 FILLER_0_1_39
*994 FILLER_0_1_51
*995 FILLER_0_1_55
*996 FILLER_0_1_57
*997 FILLER_0_1_69
*998 FILLER_0_1_81
*999 FILLER_0_1_93
*1000 FILLER_0_20_103
*1001 FILLER_0_20_118
*1002 FILLER_0_20_126
*1003 FILLER_0_20_133
*1004 FILLER_0_20_139
*1005 FILLER_0_20_141
*1006 FILLER_0_20_145
*1007 FILLER_0_20_15
*1008 FILLER_0_20_153
*1009 FILLER_0_20_165
*1010 FILLER_0_20_184
*1011 FILLER_0_20_204
*1012 FILLER_0_20_216
*1013 FILLER_0_20_228
*1014 FILLER_0_20_232
*1015 FILLER_0_20_240
*1016 FILLER_0_20_253
*1017 FILLER_0_20_27
*1018 FILLER_0_20_273
*1019 FILLER_0_20_29
*1020 FILLER_0_20_294
*1021 FILLER_0_20_3
*1022 FILLER_0_20_306
*1023 FILLER_0_20_309
*1024 FILLER_0_20_321
*1025 FILLER_0_20_333
*1026 FILLER_0_20_345
*1027 FILLER_0_20_41
*1028 FILLER_0_20_45
*1029 FILLER_0_20_51
*1030 FILLER_0_20_57
*1031 FILLER_0_20_61
*1032 FILLER_0_20_67
*1033 FILLER_0_20_71
*1034 FILLER_0_20_82
*1035 FILLER_0_20_93
*1036 FILLER_0_21_102
*1037 FILLER_0_21_120
*1038 FILLER_0_21_144
*1039 FILLER_0_21_15
*1040 FILLER_0_21_167
*1041 FILLER_0_21_169
*1042 FILLER_0_21_174
*1043 FILLER_0_21_186
*1044 FILLER_0_21_192
*1045 FILLER_0_21_207
*1046 FILLER_0_21_232
*1047 FILLER_0_21_240
*1048 FILLER_0_21_254
*1049 FILLER_0_21_267
*1050 FILLER_0_21_27
*1051 FILLER_0_21_279
*1052 FILLER_0_21_281
*1053 FILLER_0_21_293
*1054 FILLER_0_21_3
*1055 FILLER_0_21_308
*1056 FILLER_0_21_320
*1057 FILLER_0_21_332
*1058 FILLER_0_21_337
*1059 FILLER_0_21_349
*1060 FILLER_0_21_39
*1061 FILLER_0_21_47
*1062 FILLER_0_21_63
*1063 FILLER_0_21_75
*1064 FILLER_0_21_83
*1065 FILLER_0_21_95
*1066 FILLER_0_22_112
*1067 FILLER_0_22_119
*1068 FILLER_0_22_131
*1069 FILLER_0_22_139
*1070 FILLER_0_22_146
*1071 FILLER_0_22_15
*1072 FILLER_0_22_158
*1073 FILLER_0_22_170
*1074 FILLER_0_22_182
*1075 FILLER_0_22_194
*1076 FILLER_0_22_209
*1077 FILLER_0_22_219
*1078 FILLER_0_22_231
*1079 FILLER_0_22_237
*1080 FILLER_0_22_249
*1081 FILLER_0_22_253
*1082 FILLER_0_22_261
*1083 FILLER_0_22_27
*1084 FILLER_0_22_272
*1085 FILLER_0_22_29
*1086 FILLER_0_22_299
*1087 FILLER_0_22_3
*1088 FILLER_0_22_307
*1089 FILLER_0_22_309
*1090 FILLER_0_22_321
*1091 FILLER_0_22_333
*1092 FILLER_0_22_345
*1093 FILLER_0_22_37
*1094 FILLER_0_22_50
*1095 FILLER_0_22_71
*1096 FILLER_0_22_83
*1097 FILLER_0_22_85
*1098 FILLER_0_22_93
*1099 FILLER_0_23_110
*1100 FILLER_0_23_127
*1101 FILLER_0_23_137
*1102 FILLER_0_23_145
*1103 FILLER_0_23_15
*1104 FILLER_0_23_159
*1105 FILLER_0_23_167
*1106 FILLER_0_23_169
*1107 FILLER_0_23_181
*1108 FILLER_0_23_193
*1109 FILLER_0_23_208
*1110 FILLER_0_23_220
*1111 FILLER_0_23_225
*1112 FILLER_0_23_240
*1113 FILLER_0_23_253
*1114 FILLER_0_23_262
*1115 FILLER_0_23_27
*1116 FILLER_0_23_270
*1117 FILLER_0_23_290
*1118 FILLER_0_23_3
*1119 FILLER_0_23_301
*1120 FILLER_0_23_305
*1121 FILLER_0_23_314
*1122 FILLER_0_23_326
*1123 FILLER_0_23_334
*1124 FILLER_0_23_337
*1125 FILLER_0_23_349
*1126 FILLER_0_23_39
*1127 FILLER_0_23_51
*1128 FILLER_0_23_55
*1129 FILLER_0_23_60
*1130 FILLER_0_23_72
*1131 FILLER_0_23_86
*1132 FILLER_0_23_98
*1133 FILLER_0_24_103
*1134 FILLER_0_24_118
*1135 FILLER_0_24_130
*1136 FILLER_0_24_138
*1137 FILLER_0_24_141
*1138 FILLER_0_24_15
*1139 FILLER_0_24_153
*1140 FILLER_0_24_158
*1141 FILLER_0_24_166
*1142 FILLER_0_24_188
*1143 FILLER_0_24_194
*1144 FILLER_0_24_197
*1145 FILLER_0_24_224
*1146 FILLER_0_24_236
*1147 FILLER_0_24_244
*1148 FILLER_0_24_250
*1149 FILLER_0_24_253
*1150 FILLER_0_24_27
*1151 FILLER_0_24_272
*1152 FILLER_0_24_276
*1153 FILLER_0_24_286
*1154 FILLER_0_24_29
*1155 FILLER_0_24_290
*1156 FILLER_0_24_3
*1157 FILLER_0_24_300
*1158 FILLER_0_24_325
*1159 FILLER_0_24_337
*1160 FILLER_0_24_349
*1161 FILLER_0_24_71
*1162 FILLER_0_24_83
*1163 FILLER_0_24_85
*1164 FILLER_0_25_102
*1165 FILLER_0_25_110
*1166 FILLER_0_25_121
*1167 FILLER_0_25_141
*1168 FILLER_0_25_15
*1169 FILLER_0_25_165
*1170 FILLER_0_25_177
*1171 FILLER_0_25_183
*1172 FILLER_0_25_209
*1173 FILLER_0_25_222
*1174 FILLER_0_25_225
*1175 FILLER_0_25_237
*1176 FILLER_0_25_257
*1177 FILLER_0_25_27
*1178 FILLER_0_25_279
*1179 FILLER_0_25_3
*1180 FILLER_0_25_300
*1181 FILLER_0_25_308
*1182 FILLER_0_25_327
*1183 FILLER_0_25_335
*1184 FILLER_0_25_337
*1185 FILLER_0_25_349
*1186 FILLER_0_25_39
*1187 FILLER_0_25_45
*1188 FILLER_0_25_53
*1189 FILLER_0_25_57
*1190 FILLER_0_25_61
*1191 FILLER_0_25_68
*1192 FILLER_0_25_81
*1193 FILLER_0_25_90
*1194 FILLER_0_26_102
*1195 FILLER_0_26_110
*1196 FILLER_0_26_122
*1197 FILLER_0_26_132
*1198 FILLER_0_26_139
*1199 FILLER_0_26_141
*1200 FILLER_0_26_15
*1201 FILLER_0_26_153
*1202 FILLER_0_26_165
*1203 FILLER_0_26_184
*1204 FILLER_0_26_197
*1205 FILLER_0_26_201
*1206 FILLER_0_26_218
*1207 FILLER_0_26_227
*1208 FILLER_0_26_253
*1209 FILLER_0_26_257
*1210 FILLER_0_26_27
*1211 FILLER_0_26_274
*1212 FILLER_0_26_286
*1213 FILLER_0_26_29
*1214 FILLER_0_26_3
*1215 FILLER_0_26_309
*1216 FILLER_0_26_319
*1217 FILLER_0_26_337
*1218 FILLER_0_26_349
*1219 FILLER_0_26_37
*1220 FILLER_0_26_50
*1221 FILLER_0_26_66
*1222 FILLER_0_26_74
*1223 FILLER_0_26_85
*1224 FILLER_0_27_100
*1225 FILLER_0_27_110
*1226 FILLER_0_27_117
*1227 FILLER_0_27_138
*1228 FILLER_0_27_144
*1229 FILLER_0_27_15
*1230 FILLER_0_27_158
*1231 FILLER_0_27_166
*1232 FILLER_0_27_173
*1233 FILLER_0_27_185
*1234 FILLER_0_27_189
*1235 FILLER_0_27_199
*1236 FILLER_0_27_219
*1237 FILLER_0_27_223
*1238 FILLER_0_27_225
*1239 FILLER_0_27_237
*1240 FILLER_0_27_249
*1241 FILLER_0_27_27
*1242 FILLER_0_27_277
*1243 FILLER_0_27_288
*1244 FILLER_0_27_3
*1245 FILLER_0_27_304
*1246 FILLER_0_27_311
*1247 FILLER_0_27_323
*1248 FILLER_0_27_335
*1249 FILLER_0_27_346
*1250 FILLER_0_27_350
*1251 FILLER_0_27_39
*1252 FILLER_0_27_47
*1253 FILLER_0_27_55
*1254 FILLER_0_27_57
*1255 FILLER_0_27_69
*1256 FILLER_0_27_81
*1257 FILLER_0_27_92
*1258 FILLER_0_28_101
*1259 FILLER_0_28_127
*1260 FILLER_0_28_139
*1261 FILLER_0_28_141
*1262 FILLER_0_28_15
*1263 FILLER_0_28_177
*1264 FILLER_0_28_182
*1265 FILLER_0_28_194
*1266 FILLER_0_28_197
*1267 FILLER_0_28_212
*1268 FILLER_0_28_227
*1269 FILLER_0_28_245
*1270 FILLER_0_28_251
*1271 FILLER_0_28_27
*1272 FILLER_0_28_279
*1273 FILLER_0_28_29
*1274 FILLER_0_28_291
*1275 FILLER_0_28_3
*1276 FILLER_0_28_309
*1277 FILLER_0_28_327
*1278 FILLER_0_28_53
*1279 FILLER_0_28_81
*1280 FILLER_0_29_101
*1281 FILLER_0_29_110
*1282 FILLER_0_29_113
*1283 FILLER_0_29_117
*1284 FILLER_0_29_145
*1285 FILLER_0_29_15
*1286 FILLER_0_29_155
*1287 FILLER_0_29_167
*1288 FILLER_0_29_172
*1289 FILLER_0_29_180
*1290 FILLER_0_29_198
*1291 FILLER_0_29_213
*1292 FILLER_0_29_223
*1293 FILLER_0_29_225
*1294 FILLER_0_29_239
*1295 FILLER_0_29_249
*1296 FILLER_0_29_27
*1297 FILLER_0_29_274
*1298 FILLER_0_29_298
*1299 FILLER_0_29_3
*1300 FILLER_0_29_310
*1301 FILLER_0_29_322
*1302 FILLER_0_29_330
*1303 FILLER_0_29_334
*1304 FILLER_0_29_346
*1305 FILLER_0_29_350
*1306 FILLER_0_29_39
*1307 FILLER_0_29_51
*1308 FILLER_0_29_55
*1309 FILLER_0_29_57
*1310 FILLER_0_29_65
*1311 FILLER_0_29_72
*1312 FILLER_0_29_92
*1313 FILLER_0_2_109
*1314 FILLER_0_2_121
*1315 FILLER_0_2_133
*1316 FILLER_0_2_139
*1317 FILLER_0_2_141
*1318 FILLER_0_2_15
*1319 FILLER_0_2_153
*1320 FILLER_0_2_165
*1321 FILLER_0_2_177
*1322 FILLER_0_2_189
*1323 FILLER_0_2_195
*1324 FILLER_0_2_197
*1325 FILLER_0_2_209
*1326 FILLER_0_2_221
*1327 FILLER_0_2_233
*1328 FILLER_0_2_245
*1329 FILLER_0_2_251
*1330 FILLER_0_2_253
*1331 FILLER_0_2_265
*1332 FILLER_0_2_27
*1333 FILLER_0_2_277
*1334 FILLER_0_2_289
*1335 FILLER_0_2_29
*1336 FILLER_0_2_3
*1337 FILLER_0_2_301
*1338 FILLER_0_2_307
*1339 FILLER_0_2_309
*1340 FILLER_0_2_321
*1341 FILLER_0_2_333
*1342 FILLER_0_2_345
*1343 FILLER_0_2_41
*1344 FILLER_0_2_53
*1345 FILLER_0_2_65
*1346 FILLER_0_2_77
*1347 FILLER_0_2_83
*1348 FILLER_0_2_85
*1349 FILLER_0_2_97
*1350 FILLER_0_30_108
*1351 FILLER_0_30_122
*1352 FILLER_0_30_135
*1353 FILLER_0_30_139
*1354 FILLER_0_30_141
*1355 FILLER_0_30_15
*1356 FILLER_0_30_157
*1357 FILLER_0_30_168
*1358 FILLER_0_30_172
*1359 FILLER_0_30_186
*1360 FILLER_0_30_197
*1361 FILLER_0_30_245
*1362 FILLER_0_30_251
*1363 FILLER_0_30_253
*1364 FILLER_0_30_27
*1365 FILLER_0_30_270
*1366 FILLER_0_30_29
*1367 FILLER_0_30_291
*1368 FILLER_0_30_298
*1369 FILLER_0_30_3
*1370 FILLER_0_30_306
*1371 FILLER_0_30_309
*1372 FILLER_0_30_330
*1373 FILLER_0_30_37
*1374 FILLER_0_30_75
*1375 FILLER_0_30_83
*1376 FILLER_0_30_85
*1377 FILLER_0_30_90
*1378 FILLER_0_30_96
*1379 FILLER_0_31_108
*1380 FILLER_0_31_121
*1381 FILLER_0_31_139
*1382 FILLER_0_31_143
*1383 FILLER_0_31_15
*1384 FILLER_0_31_169
*1385 FILLER_0_31_193
*1386 FILLER_0_31_220
*1387 FILLER_0_31_225
*1388 FILLER_0_31_237
*1389 FILLER_0_31_249
*1390 FILLER_0_31_258
*1391 FILLER_0_31_27
*1392 FILLER_0_31_274
*1393 FILLER_0_31_290
*1394 FILLER_0_31_3
*1395 FILLER_0_31_308
*1396 FILLER_0_31_320
*1397 FILLER_0_31_328
*1398 FILLER_0_31_334
*1399 FILLER_0_31_337
*1400 FILLER_0_31_349
*1401 FILLER_0_31_39
*1402 FILLER_0_31_51
*1403 FILLER_0_31_55
*1404 FILLER_0_31_57
*1405 FILLER_0_31_69
*1406 FILLER_0_31_90
*1407 FILLER_0_31_98
*1408 FILLER_0_32_127
*1409 FILLER_0_32_139
*1410 FILLER_0_32_15
*1411 FILLER_0_32_177
*1412 FILLER_0_32_189
*1413 FILLER_0_32_195
*1414 FILLER_0_32_233
*1415 FILLER_0_32_242
*1416 FILLER_0_32_250
*1417 FILLER_0_32_27
*1418 FILLER_0_32_273
*1419 FILLER_0_32_281
*1420 FILLER_0_32_29
*1421 FILLER_0_32_291
*1422 FILLER_0_32_299
*1423 FILLER_0_32_3
*1424 FILLER_0_32_304
*1425 FILLER_0_32_309
*1426 FILLER_0_32_332
*1427 FILLER_0_32_350
*1428 FILLER_0_32_41
*1429 FILLER_0_32_69
*1430 FILLER_0_32_74
*1431 FILLER_0_32_83
*1432 FILLER_0_32_85
*1433 FILLER_0_33_104
*1434 FILLER_0_33_137
*1435 FILLER_0_33_147
*1436 FILLER_0_33_15
*1437 FILLER_0_33_157
*1438 FILLER_0_33_165
*1439 FILLER_0_33_189
*1440 FILLER_0_33_201
*1441 FILLER_0_33_220
*1442 FILLER_0_33_225
*1443 FILLER_0_33_229
*1444 FILLER_0_33_269
*1445 FILLER_0_33_27
*1446 FILLER_0_33_294
*1447 FILLER_0_33_3
*1448 FILLER_0_33_310
*1449 FILLER_0_33_328
*1450 FILLER_0_33_337
*1451 FILLER_0_33_349
*1452 FILLER_0_33_39
*1453 FILLER_0_33_51
*1454 FILLER_0_33_55
*1455 FILLER_0_33_57
*1456 FILLER_0_33_65
*1457 FILLER_0_33_94
*1458 FILLER_0_34_109
*1459 FILLER_0_34_117
*1460 FILLER_0_34_126
*1461 FILLER_0_34_134
*1462 FILLER_0_34_139
*1463 FILLER_0_34_146
*1464 FILLER_0_34_15
*1465 FILLER_0_34_158
*1466 FILLER_0_34_162
*1467 FILLER_0_34_170
*1468 FILLER_0_34_174
*1469 FILLER_0_34_187
*1470 FILLER_0_34_197
*1471 FILLER_0_34_213
*1472 FILLER_0_34_232
*1473 FILLER_0_34_238
*1474 FILLER_0_34_247
*1475 FILLER_0_34_251
*1476 FILLER_0_34_253
*1477 FILLER_0_34_264
*1478 FILLER_0_34_27
*1479 FILLER_0_34_276
*1480 FILLER_0_34_284
*1481 FILLER_0_34_289
*1482 FILLER_0_34_29
*1483 FILLER_0_34_297
*1484 FILLER_0_34_3
*1485 FILLER_0_34_305
*1486 FILLER_0_34_309
*1487 FILLER_0_34_313
*1488 FILLER_0_34_323
*1489 FILLER_0_34_41
*1490 FILLER_0_34_50
*1491 FILLER_0_34_54
*1492 FILLER_0_34_64
*1493 FILLER_0_34_73
*1494 FILLER_0_34_81
*1495 FILLER_0_34_85
*1496 FILLER_0_34_89
*1497 FILLER_0_35_108
*1498 FILLER_0_35_122
*1499 FILLER_0_35_130
*1500 FILLER_0_35_138
*1501 FILLER_0_35_15
*1502 FILLER_0_35_152
*1503 FILLER_0_35_164
*1504 FILLER_0_35_185
*1505 FILLER_0_35_211
*1506 FILLER_0_35_223
*1507 FILLER_0_35_27
*1508 FILLER_0_35_3
*1509 FILLER_0_35_311
*1510 FILLER_0_35_331
*1511 FILLER_0_35_335
*1512 FILLER_0_35_340
*1513 FILLER_0_35_348
*1514 FILLER_0_35_35
*1515 FILLER_0_35_57
*1516 FILLER_0_35_91
*1517 FILLER_0_35_96
*1518 FILLER_0_36_107
*1519 FILLER_0_36_119
*1520 FILLER_0_36_127
*1521 FILLER_0_36_139
*1522 FILLER_0_36_15
*1523 FILLER_0_36_158
*1524 FILLER_0_36_163
*1525 FILLER_0_36_175
*1526 FILLER_0_36_187
*1527 FILLER_0_36_195
*1528 FILLER_0_36_197
*1529 FILLER_0_36_209
*1530 FILLER_0_36_221
*1531 FILLER_0_36_233
*1532 FILLER_0_36_243
*1533 FILLER_0_36_248
*1534 FILLER_0_36_262
*1535 FILLER_0_36_269
*1536 FILLER_0_36_27
*1537 FILLER_0_36_281
*1538 FILLER_0_36_287
*1539 FILLER_0_36_29
*1540 FILLER_0_36_3
*1541 FILLER_0_36_305
*1542 FILLER_0_36_309
*1543 FILLER_0_36_318
*1544 FILLER_0_36_41
*1545 FILLER_0_36_45
*1546 FILLER_0_36_65
*1547 FILLER_0_36_73
*1548 FILLER_0_36_78
*1549 FILLER_0_36_85
*1550 FILLER_0_37_102
*1551 FILLER_0_37_108
*1552 FILLER_0_37_131
*1553 FILLER_0_37_15
*1554 FILLER_0_37_178
*1555 FILLER_0_37_192
*1556 FILLER_0_37_212
*1557 FILLER_0_37_220
*1558 FILLER_0_37_263
*1559 FILLER_0_37_27
*1560 FILLER_0_37_279
*1561 FILLER_0_37_3
*1562 FILLER_0_37_314
*1563 FILLER_0_37_327
*1564 FILLER_0_37_333
*1565 FILLER_0_37_337
*1566 FILLER_0_37_349
*1567 FILLER_0_37_39
*1568 FILLER_0_37_54
*1569 FILLER_0_37_57
*1570 FILLER_0_37_67
*1571 FILLER_0_38_110
*1572 FILLER_0_38_113
*1573 FILLER_0_38_131
*1574 FILLER_0_38_139
*1575 FILLER_0_38_14
*1576 FILLER_0_38_147
*1577 FILLER_0_38_162
*1578 FILLER_0_38_169
*1579 FILLER_0_38_18
*1580 FILLER_0_38_194
*1581 FILLER_0_38_197
*1582 FILLER_0_38_218
*1583 FILLER_0_38_22
*1584 FILLER_0_38_225
*1585 FILLER_0_38_237
*1586 FILLER_0_38_249
*1587 FILLER_0_38_253
*1588 FILLER_0_38_265
*1589 FILLER_0_38_271
*1590 FILLER_0_38_279
*1591 FILLER_0_38_297
*1592 FILLER_0_38_3
*1593 FILLER_0_38_32
*1594 FILLER_0_38_343
*1595 FILLER_0_38_38
*1596 FILLER_0_38_42
*1597 FILLER_0_38_46
*1598 FILLER_0_38_50
*1599 FILLER_0_38_54
*1600 FILLER_0_38_57
*1601 FILLER_0_38_62
*1602 FILLER_0_38_66
*1603 FILLER_0_38_70
*1604 FILLER_0_38_82
*1605 FILLER_0_38_85
*1606 FILLER_0_3_105
*1607 FILLER_0_3_111
*1608 FILLER_0_3_113
*1609 FILLER_0_3_125
*1610 FILLER_0_3_137
*1611 FILLER_0_3_149
*1612 FILLER_0_3_15
*1613 FILLER_0_3_161
*1614 FILLER_0_3_167
*1615 FILLER_0_3_169
*1616 FILLER_0_3_181
*1617 FILLER_0_3_193
*1618 FILLER_0_3_205
*1619 FILLER_0_3_217
*1620 FILLER_0_3_223
*1621 FILLER_0_3_225
*1622 FILLER_0_3_237
*1623 FILLER_0_3_249
*1624 FILLER_0_3_261
*1625 FILLER_0_3_27
*1626 FILLER_0_3_273
*1627 FILLER_0_3_279
*1628 FILLER_0_3_281
*1629 FILLER_0_3_293
*1630 FILLER_0_3_3
*1631 FILLER_0_3_305
*1632 FILLER_0_3_317
*1633 FILLER_0_3_329
*1634 FILLER_0_3_335
*1635 FILLER_0_3_337
*1636 FILLER_0_3_349
*1637 FILLER_0_3_39
*1638 FILLER_0_3_51
*1639 FILLER_0_3_55
*1640 FILLER_0_3_57
*1641 FILLER_0_3_69
*1642 FILLER_0_3_81
*1643 FILLER_0_3_93
*1644 FILLER_0_4_109
*1645 FILLER_0_4_121
*1646 FILLER_0_4_133
*1647 FILLER_0_4_139
*1648 FILLER_0_4_141
*1649 FILLER_0_4_15
*1650 FILLER_0_4_153
*1651 FILLER_0_4_165