*SPEF "ieee 1481-1999"
*DESIGN "tt_um_thezoq2_tmng"
*DATE "11:11:11 Fri 11 11, 1111"
*VENDOR "OpenRCX"
*PROGRAM "Parallel Extraction"
*VERSION "1.0"
*DESIGN_FLOW "NAME_SCOPE LOCAL" "PIN_CAP NONE"
*DIVIDER /
*DELIMITER :
*BUS_DELIMITER []
*T_UNIT 1 NS
*C_UNIT 1 PF
*R_UNIT 1 OHM
*L_UNIT 1 HENRY

*NAME_MAP
*3 clk
*4 ena
*5 rst_n
*6 ui_in[0]
*7 ui_in[1]
*8 ui_in[2]
*9 ui_in[3]
*10 ui_in[4]
*11 ui_in[5]
*12 ui_in[6]
*13 ui_in[7]
*14 uio_in[0]
*15 uio_in[1]
*16 uio_in[2]
*17 uio_in[3]
*18 uio_in[4]
*19 uio_in[5]
*20 uio_in[6]
*21 uio_in[7]
*22 net17
*23 net18
*24 net19
*25 net20
*26 net21
*27 net22
*28 net23
*29 net24
*30 net25
*31 net26
*32 net27
*33 net28
*34 net29
*35 net30
*36 net31
*37 net32
*38 uo_out[0]
*39 uo_out[1]
*40 uo_out[2]
*41 uo_out[3]
*42 uo_out[4]
*43 uo_out[5]
*44 uo_out[6]
*45 uo_out[7]
*46 _0000_
*47 _0001_
*48 _0002_
*49 _0003_
*50 _0004_
*51 _0005_
*52 _0006_
*53 _0007_
*54 _0008_
*55 _0009_
*56 _0010_
*57 _0011_
*58 _0012_
*59 _0013_
*60 _0014_
*61 _0015_
*62 _0016_
*63 _0017_
*64 _0018_
*65 _0019_
*66 _0020_
*67 _0021_
*68 _0022_
*69 _0023_
*70 _0024_
*71 _0025_
*72 _0026_
*73 _0027_
*74 _0028_
*75 _0029_
*76 _0030_
*77 _0031_
*78 _0032_
*79 _0033_
*80 _0034_
*81 _0035_
*82 _0036_
*83 _0037_
*84 _0038_
*85 _0039_
*86 _0040_
*87 _0041_
*88 _0042_
*89 _0043_
*90 _0044_
*91 _0045_
*92 _0046_
*93 _0047_
*94 _0048_
*95 _0049_
*96 _0050_
*97 _0051_
*98 _0052_
*99 _0053_
*100 _0054_
*101 _0055_
*102 _0056_
*103 _0057_
*104 _0058_
*105 _0059_
*106 _0060_
*107 _0061_
*108 _0062_
*109 _0063_
*110 _0064_
*111 _0065_
*112 _0066_
*113 _0067_
*114 _0068_
*115 _0069_
*116 _0070_
*117 _0071_
*118 _0072_
*119 _0073_
*120 _0074_
*121 _0075_
*122 _0076_
*123 _0077_
*124 _0078_
*125 _0079_
*126 _0080_
*127 _0081_
*128 _0082_
*129 _0083_
*130 _0084_
*131 _0085_
*132 _0086_
*133 _0087_
*134 _0088_
*135 _0089_
*136 _0090_
*137 _0091_
*138 _0092_
*139 _0093_
*140 _0094_
*141 _0095_
*142 _0096_
*143 _0097_
*144 _0098_
*145 _0099_
*146 _0100_
*147 _0101_
*148 _0102_
*149 _0103_
*150 _0104_
*151 _0105_
*152 _0106_
*153 _0107_
*154 _0108_
*155 _0109_
*156 _0110_
*157 _0111_
*158 _0112_
*159 _0113_
*160 _0114_
*161 _0115_
*162 _0116_
*163 _0117_
*164 _0118_
*165 _0119_
*166 _0120_
*167 _0121_
*168 _0122_
*169 _0123_
*170 _0124_
*171 _0125_
*172 _0126_
*173 _0127_
*174 _0128_
*175 _0129_
*176 _0130_
*177 _0131_
*178 _0132_
*179 _0133_
*180 _0134_
*181 _0135_
*182 _0136_
*183 _0137_
*184 _0138_
*185 _0139_
*186 _0140_
*187 _0141_
*188 _0142_
*189 _0143_
*190 _0144_
*191 _0145_
*192 _0146_
*193 _0147_
*194 _0148_
*195 _0149_
*196 _0150_
*197 _0151_
*198 _0152_
*199 _0153_
*200 _0154_
*201 _0155_
*202 _0156_
*203 _0157_
*204 _0158_
*205 _0159_
*206 _0160_
*207 _0161_
*208 _0162_
*209 _0163_
*210 _0164_
*211 _0165_
*212 _0166_
*213 _0167_
*214 _0168_
*215 _0169_
*216 _0170_
*217 _0171_
*218 _0172_
*219 _0173_
*220 _0174_
*221 _0175_
*222 _0176_
*223 _0177_
*224 _0178_
*225 _0179_
*226 _0180_
*227 _0181_
*228 _0182_
*229 _0183_
*230 _0184_
*231 _0185_
*232 _0186_
*233 _0187_
*234 _0188_
*235 _0189_
*236 _0190_
*237 _0191_
*238 _0192_
*239 _0193_
*240 _0194_
*241 _0195_
*242 _0196_
*243 _0197_
*244 _0198_
*245 _0199_
*246 _0200_
*247 _0201_
*248 _0202_
*249 _0203_
*250 _0204_
*251 _0205_
*252 _0206_
*253 _0207_
*254 _0208_
*255 _0209_
*256 _0210_
*257 _0211_
*258 _0212_
*259 _0213_
*260 _0214_
*261 _0215_
*262 _0216_
*263 _0217_
*264 _0218_
*265 _0219_
*266 _0220_
*267 _0221_
*268 _0222_
*269 _0223_
*270 _0224_
*271 _0225_
*272 _0226_
*273 _0227_
*274 _0228_
*275 _0229_
*276 _0230_
*277 _0231_
*278 _0232_
*279 _0233_
*280 _0234_
*281 _0235_
*282 _0236_
*283 _0237_
*284 _0238_
*285 _0239_
*286 _0240_
*287 _0241_
*288 _0242_
*289 _0243_
*290 _0244_
*291 _0245_
*292 _0246_
*293 _0247_
*294 _0248_
*295 _0249_
*296 _0250_
*297 _0251_
*298 _0252_
*299 _0253_
*300 _0254_
*301 _0255_
*302 _0256_
*303 _0257_
*304 _0258_
*305 _0259_
*306 _0260_
*307 _0261_
*308 _0262_
*309 _0263_
*310 _0264_
*311 _0265_
*312 _0266_
*313 _0267_
*314 _0268_
*315 _0269_
*316 _0270_
*317 _0271_
*318 _0272_
*319 _0273_
*320 _0274_
*321 _0275_
*322 _0276_
*323 _0277_
*324 _0278_
*325 _0279_
*326 _0280_
*327 _0281_
*328 _0282_
*329 _0283_
*330 _0284_
*331 _0285_
*332 _0286_
*333 _0287_
*334 _0288_
*335 _0289_
*336 _0290_
*337 _0291_
*338 _0292_
*339 _0293_
*340 _0294_
*341 _0295_
*342 _0296_
*343 _0297_
*344 _0298_
*345 _0299_
*346 _0300_
*347 _0301_
*348 _0302_
*349 _0303_
*350 _0304_
*351 _0305_
*352 _0306_
*353 _0307_
*354 _0308_
*355 _0309_
*356 _0310_
*357 _0311_
*358 _0312_
*359 _0313_
*360 _0314_
*361 _0315_
*362 _0316_
*363 _0317_
*364 _0318_
*365 _0319_
*366 _0320_
*367 _0321_
*368 _0322_
*369 _0323_
*370 _0324_
*371 _0325_
*372 _0326_
*373 _0327_
*374 _0328_
*375 _0329_
*376 _0330_
*377 _0331_
*378 _0332_
*379 _0333_
*380 _0334_
*381 _0335_
*382 _0336_
*383 _0337_
*384 _0338_
*385 _0339_
*386 _0340_
*387 _0341_
*388 _0342_
*389 _0343_
*390 _0344_
*391 _0345_
*392 _0346_
*393 _0347_
*394 _0348_
*395 _0349_
*396 _0350_
*397 _0351_
*398 _0352_
*399 _0353_
*400 _0354_
*401 _0355_
*402 _0356_
*403 _0357_
*404 _0358_
*405 _0359_
*406 _0360_
*407 _0361_
*408 _0362_
*409 _0363_
*410 _0364_
*411 _0365_
*412 _0366_
*413 _0367_
*414 _0368_
*415 _0369_
*416 _0370_
*417 _0371_
*418 _0372_
*419 _0373_
*420 _0374_
*421 _0375_
*422 _0376_
*423 _0377_
*424 _0378_
*425 _0379_
*426 _0380_
*427 _0381_
*428 _0382_
*429 _0383_
*430 _0384_
*431 _0385_
*432 _0386_
*433 _0387_
*434 _0388_
*435 _0389_
*436 _0390_
*437 _0391_
*438 _0392_
*439 _0393_
*440 _0394_
*441 _0395_
*442 _0396_
*443 _0397_
*444 _0398_
*445 _0399_
*446 _0400_
*447 _0401_
*448 _0402_
*449 _0403_
*450 _0404_
*451 _0405_
*452 _0406_
*453 _0407_
*454 _0408_
*455 _0409_
*456 _0410_
*457 _0411_
*458 _0412_
*459 _0413_
*460 _0414_
*461 _0415_
*462 _0416_
*463 _0417_
*464 _0418_
*465 _0419_
*466 _0420_
*467 _0421_
*468 _0422_
*469 _0423_
*470 _0424_
*471 _0425_
*472 _0426_
*473 _0427_
*474 _0428_
*475 _0429_
*476 _0430_
*477 _0431_
*478 _0432_
*479 _0433_
*480 _0434_
*481 _0435_
*482 _0436_
*483 _0437_
*484 _0438_
*485 _0439_
*486 _0440_
*487 _0441_
*488 _0442_
*489 _0443_
*490 _0444_
*491 _0445_
*492 _0446_
*493 _0447_
*494 _0448_
*495 _0449_
*496 _0450_
*497 _0451_
*498 _0452_
*499 _0453_
*500 _0454_
*501 _0455_
*502 _0456_
*503 _0457_
*504 _0458_
*505 _0459_
*506 _0460_
*507 _0461_
*508 _0462_
*509 _0463_
*510 _0464_
*511 _0465_
*512 _0466_
*513 _0467_
*514 _0468_
*515 _0469_
*516 _0470_
*517 _0471_
*518 _0472_
*519 _0473_
*520 _0474_
*521 _0475_
*522 _0476_
*523 _0477_
*524 _0478_
*525 _0479_
*526 _0480_
*527 _0481_
*528 _0482_
*529 _0483_
*530 _0484_
*531 _0485_
*532 _0486_
*533 _0487_
*534 _0488_
*535 _0489_
*536 _0490_
*537 _0491_
*538 _0492_
*539 _0493_
*540 _0494_
*541 _0495_
*542 _0496_
*543 _0497_
*544 _0498_
*545 _0499_
*546 _0500_
*547 _0501_
*548 _0502_
*549 _0503_
*550 _0504_
*551 _0505_
*552 _0506_
*553 _0507_
*554 _0508_
*555 _0509_
*556 _0510_
*557 _0511_
*558 _0512_
*559 _0513_
*560 _0514_
*561 _0515_
*562 _0516_
*563 _0517_
*564 _0518_
*565 _0519_
*566 _0520_
*567 _0521_
*568 _0522_
*569 _0523_
*570 _0524_
*571 _0525_
*572 _0526_
*573 _0527_
*574 _0528_
*575 _0529_
*576 _0530_
*577 _0531_
*578 _0532_
*579 _0533_
*580 _0534_
*581 _0535_
*582 _0536_
*583 _0537_
*584 _0538_
*585 _0539_
*586 _0540_
*587 _0541_
*588 _0542_
*589 _0543_
*590 _0544_
*591 _0545_
*592 _0546_
*593 _0547_
*594 _0548_
*595 _0549_
*596 _0550_
*597 _0551_
*598 _0552_
*599 _0553_
*600 _0554_
*601 _0555_
*602 _0556_
*603 _0557_
*604 _0558_
*605 _0559_
*606 _0560_
*607 _0561_
*608 _0562_
*609 _0563_
*610 _0564_
*611 _0565_
*612 _0566_
*613 _0567_
*614 _0568_
*615 _0569_
*616 _0570_
*617 _0571_
*618 _0572_
*619 _0573_
*620 _0574_
*621 _0575_
*622 _0576_
*623 _0577_
*624 _0578_
*625 _0579_
*626 _0580_
*627 _0581_
*628 _0582_
*629 _0583_
*630 _0584_
*631 _0585_
*632 _0586_
*633 _0587_
*634 _0588_
*635 _0589_
*636 _0590_
*637 _0591_
*638 _0592_
*639 _0593_
*640 _0594_
*641 _0595_
*642 _0596_
*643 _0597_
*644 _0598_
*645 _0599_
*646 _0600_
*647 _0601_
*648 _0602_
*649 _0603_
*650 _0604_
*651 _0605_
*652 _0606_
*653 _0607_
*654 _0608_
*655 _0609_
*656 _0610_
*657 _0611_
*658 clknet_0_clk
*659 clknet_4_0_0_clk
*660 clknet_4_10_0_clk
*661 clknet_4_11_0_clk
*662 clknet_4_12_0_clk
*663 clknet_4_13_0_clk
*664 clknet_4_14_0_clk
*665 clknet_4_15_0_clk
*666 clknet_4_1_0_clk
*667 clknet_4_2_0_clk
*668 clknet_4_3_0_clk
*669 clknet_4_4_0_clk
*670 clknet_4_5_0_clk
*671 clknet_4_6_0_clk
*672 clknet_4_7_0_clk
*673 clknet_4_8_0_clk
*674 clknet_4_9_0_clk
*675 net1
*676 net10
*677 net100
*678 net101
*679 net102
*680 net103
*681 net104
*682 net105
*683 net106
*684 net107
*685 net108
*686 net109
*687 net11
*688 net110
*689 net111
*690 net112
*691 net113
*692 net114
*693 net115
*694 net116
*695 net117
*696 net118
*697 net119
*698 net12
*699 net120
*700 net121
*701 net122
*702 net123
*703 net124
*704 net125
*705 net126
*706 net127
*707 net128
*708 net129
*709 net13
*710 net130
*711 net131
*712 net132
*713 net133
*714 net134
*715 net135
*716 net136
*717 net137
*718 net138
*719 net139
*720 net14
*721 net140
*722 net141
*723 net142
*724 net143
*725 net144
*726 net145
*727 net146
*728 net147
*729 net148
*730 net149
*731 net15
*732 net150
*733 net151
*734 net152
*735 net153
*736 net154
*737 net155
*738 net156
*739 net157
*740 net158
*741 net159
*742 net16
*743 net160
*744 net161
*745 net162
*746 net163
*747 net164
*748 net165
*749 net166
*750 net167
*751 net168
*752 net169
*753 net170
*754 net171
*755 net172
*756 net173
*757 net174
*758 net175
*759 net176
*760 net177
*761 net178
*762 net179
*763 net180
*764 net181
*765 net182
*766 net183
*767 net184
*768 net185
*769 net186
*770 net187
*771 net188
*772 net189
*773 net190
*774 net191
*775 net192
*776 net193
*777 net194
*778 net2
*779 net3
*780 net33
*781 net34
*782 net35
*783 net36
*784 net37
*785 net38
*786 net39
*787 net4
*788 net40
*789 net41
*790 net42
*791 net43
*792 net44
*793 net45
*794 net46
*795 net47
*796 net48
*797 net49
*798 net5
*799 net50
*800 net51
*801 net52
*802 net53
*803 net54
*804 net55
*805 net56
*806 net57
*807 net58
*808 net59
*809 net6
*810 net60
*811 net61
*812 net62
*813 net63
*814 net64
*815 net65
*816 net66
*817 net67
*818 net68
*819 net69
*820 net7
*821 net70
*822 net71
*823 net72
*824 net73
*825 net74
*826 net75
*827 net76
*828 net77
*829 net78
*830 net79
*831 net8
*832 net80
*833 net81
*834 net82
*835 net83
*836 net84
*837 net85
*838 net86
*839 net87
*840 net88
*841 net89
*842 net9
*843 net90
*844 net91
*845 net92
*846 net93
*847 net94
*848 net95
*849 net96
*850 net97
*851 net98
*852 net99
*853 top_impl_0\._e_128
*854 top_impl_0\._e_135\[0\]
*855 top_impl_0\._e_135\[1\]
*856 top_impl_0\._e_135\[2\]
*857 top_impl_0\._e_135\[3\]
*858 top_impl_0\._e_135\[4\]
*859 top_impl_0\._e_135\[5\]
*860 top_impl_0\._e_135\[6\]
*861 top_impl_0\._e_141
*862 top_impl_0\._e_148\[0\]
*863 top_impl_0\._e_148\[1\]
*864 top_impl_0\._e_148\[2\]
*865 top_impl_0\._e_148\[3\]
*866 top_impl_0\._e_148\[4\]
*867 top_impl_0\._e_148\[5\]
*868 top_impl_0\._e_148\[6\]
*869 top_impl_0\._e_175\[1\]
*870 top_impl_0\._e_175\[2\]
*871 top_impl_0\._e_175\[3\]
*872 top_impl_0\._e_175\[4\]
*873 top_impl_0\._e_175\[5\]
*874 top_impl_0\._e_175\[6\]
*875 top_impl_0\._e_175\[7\]
*876 top_impl_0\._e_207
*877 top_impl_0\.commit
*878 top_impl_0\.commit_old
*879 top_impl_0\.decode_extra_control_0\._e_104
*880 top_impl_0\.opa
*881 top_impl_0\.regfile_0\.mem\[0\]
*882 top_impl_0\.regfile_0\.mem\[100\]
*883 top_impl_0\.regfile_0\.mem\[101\]
*884 top_impl_0\.regfile_0\.mem\[102\]
*885 top_impl_0\.regfile_0\.mem\[103\]
*886 top_impl_0\.regfile_0\.mem\[104\]
*887 top_impl_0\.regfile_0\.mem\[105\]
*888 top_impl_0\.regfile_0\.mem\[106\]
*889 top_impl_0\.regfile_0\.mem\[107\]
*890 top_impl_0\.regfile_0\.mem\[108\]
*891 top_impl_0\.regfile_0\.mem\[109\]
*892 top_impl_0\.regfile_0\.mem\[10\]
*893 top_impl_0\.regfile_0\.mem\[110\]
*894 top_impl_0\.regfile_0\.mem\[111\]
*895 top_impl_0\.regfile_0\.mem\[112\]
*896 top_impl_0\.regfile_0\.mem\[113\]
*897 top_impl_0\.regfile_0\.mem\[114\]
*898 top_impl_0\.regfile_0\.mem\[115\]
*899 top_impl_0\.regfile_0\.mem\[116\]
*900 top_impl_0\.regfile_0\.mem\[117\]
*901 top_impl_0\.regfile_0\.mem\[118\]
*902 top_impl_0\.regfile_0\.mem\[119\]
*903 top_impl_0\.regfile_0\.mem\[11\]
*904 top_impl_0\.regfile_0\.mem\[120\]
*905 top_impl_0\.regfile_0\.mem\[121\]
*906 top_impl_0\.regfile_0\.mem\[122\]
*907 top_impl_0\.regfile_0\.mem\[123\]
*908 top_impl_0\.regfile_0\.mem\[124\]
*909 top_impl_0\.regfile_0\.mem\[125\]
*910 top_impl_0\.regfile_0\.mem\[126\]
*911 top_impl_0\.regfile_0\.mem\[127\]
*912 top_impl_0\.regfile_0\.mem\[12\]
*913 top_impl_0\.regfile_0\.mem\[13\]
*914 top_impl_0\.regfile_0\.mem\[14\]
*915 top_impl_0\.regfile_0\.mem\[15\]
*916 top_impl_0\.regfile_0\.mem\[16\]
*917 top_impl_0\.regfile_0\.mem\[17\]
*918 top_impl_0\.regfile_0\.mem\[18\]
*919 top_impl_0\.regfile_0\.mem\[19\]
*920 top_impl_0\.regfile_0\.mem\[1\]
*921 top_impl_0\.regfile_0\.mem\[20\]
*922 top_impl_0\.regfile_0\.mem\[21\]
*923 top_impl_0\.regfile_0\.mem\[22\]
*924 top_impl_0\.regfile_0\.mem\[23\]
*925 top_impl_0\.regfile_0\.mem\[24\]
*926 top_impl_0\.regfile_0\.mem\[25\]
*927 top_impl_0\.regfile_0\.mem\[26\]
*928 top_impl_0\.regfile_0\.mem\[27\]
*929 top_impl_0\.regfile_0\.mem\[28\]
*930 top_impl_0\.regfile_0\.mem\[29\]
*931 top_impl_0\.regfile_0\.mem\[2\]
*932 top_impl_0\.regfile_0\.mem\[30\]
*933 top_impl_0\.regfile_0\.mem\[31\]
*934 top_impl_0\.regfile_0\.mem\[32\]
*935 top_impl_0\.regfile_0\.mem\[33\]
*936 top_impl_0\.regfile_0\.mem\[34\]
*937 top_impl_0\.regfile_0\.mem\[35\]
*938 top_impl_0\.regfile_0\.mem\[36\]
*939 top_impl_0\.regfile_0\.mem\[37\]
*940 top_impl_0\.regfile_0\.mem\[38\]
*941 top_impl_0\.regfile_0\.mem\[39\]
*942 top_impl_0\.regfile_0\.mem\[3\]
*943 top_impl_0\.regfile_0\.mem\[40\]
*944 top_impl_0\.regfile_0\.mem\[41\]
*945 top_impl_0\.regfile_0\.mem\[42\]
*946 top_impl_0\.regfile_0\.mem\[43\]
*947 top_impl_0\.regfile_0\.mem\[44\]
*948 top_impl_0\.regfile_0\.mem\[45\]
*949 top_impl_0\.regfile_0\.mem\[46\]
*950 top_impl_0\.regfile_0\.mem\[47\]
*951 top_impl_0\.regfile_0\.mem\[48\]
*952 top_impl_0\.regfile_0\.mem\[49\]
*953 top_impl_0\.regfile_0\.mem\[4\]
*954 top_impl_0\.regfile_0\.mem\[50\]
*955 top_impl_0\.regfile_0\.mem\[51\]
*956 top_impl_0\.regfile_0\.mem\[52\]
*957 top_impl_0\.regfile_0\.mem\[53\]
*958 top_impl_0\.regfile_0\.mem\[54\]
*959 top_impl_0\.regfile_0\.mem\[55\]
*960 top_impl_0\.regfile_0\.mem\[56\]
*961 top_impl_0\.regfile_0\.mem\[57\]
*962 top_impl_0\.regfile_0\.mem\[58\]
*963 top_impl_0\.regfile_0\.mem\[59\]
*964 top_impl_0\.regfile_0\.mem\[5\]
*965 top_impl_0\.regfile_0\.mem\[60\]
*966 top_impl_0\.regfile_0\.mem\[61\]
*967 top_impl_0\.regfile_0\.mem\[62\]
*968 top_impl_0\.regfile_0\.mem\[63\]
*969 top_impl_0\.regfile_0\.mem\[64\]
*970 top_impl_0\.regfile_0\.mem\[65\]
*971 top_impl_0\.regfile_0\.mem\[66\]
*972 top_impl_0\.regfile_0\.mem\[67\]
*973 top_impl_0\.regfile_0\.mem\[68\]
*974 top_impl_0\.regfile_0\.mem\[69\]
*975 top_impl_0\.regfile_0\.mem\[6\]
*976 top_impl_0\.regfile_0\.mem\[70\]
*977 top_impl_0\.regfile_0\.mem\[71\]
*978 top_impl_0\.regfile_0\.mem\[72\]
*979 top_impl_0\.regfile_0\.mem\[73\]
*980 top_impl_0\.regfile_0\.mem\[74\]
*981 top_impl_0\.regfile_0\.mem\[75\]
*982 top_impl_0\.regfile_0\.mem\[76\]
*983 top_impl_0\.regfile_0\.mem\[77\]
*984 top_impl_0\.regfile_0\.mem\[78\]
*985 top_impl_0\.regfile_0\.mem\[79\]
*986 top_impl_0\.regfile_0\.mem\[7\]
*987 top_impl_0\.regfile_0\.mem\[80\]
*988 top_impl_0\.regfile_0\.mem\[81\]
*989 top_impl_0\.regfile_0\.mem\[82\]
*990 top_impl_0\.regfile_0\.mem\[83\]
*991 top_impl_0\.regfile_0\.mem\[84\]
*992 top_impl_0\.regfile_0\.mem\[85\]
*993 top_impl_0\.regfile_0\.mem\[86\]
*994 top_impl_0\.regfile_0\.mem\[87\]
*995 top_impl_0\.regfile_0\.mem\[88\]
*996 top_impl_0\.regfile_0\.mem\[89\]
*997 top_impl_0\.regfile_0\.mem\[8\]
*998 top_impl_0\.regfile_0\.mem\[90\]
*999 top_impl_0\.regfile_0\.mem\[91\]
*1000 top_impl_0\.regfile_0\.mem\[92\]
*1001 top_impl_0\.regfile_0\.mem\[93\]
*1002 top_impl_0\.regfile_0\.mem\[94\]
*1003 top_impl_0\.regfile_0\.mem\[95\]
*1004 top_impl_0\.regfile_0\.mem\[96\]
*1005 top_impl_0\.regfile_0\.mem\[97\]
*1006 top_impl_0\.regfile_0\.mem\[98\]
*1007 top_impl_0\.regfile_0\.mem\[99\]
*1008 top_impl_0\.regfile_0\.mem\[9\]
*1009 top_impl_0\.regfile_0\.out
*1010 top_impl_0\.regfile_0\.s1_addr\[0\]
*1011 top_impl_0\.regfile_0\.s1_addr\[1\]
*1012 top_impl_0\.regfile_0\.s1_addr\[2\]
*1013 top_impl_0\.regfile_0\.s1_addr\[3\]
*1014 top_impl_0\.regfile_0\.s1_addr\[4\]
*1015 top_impl_0\.regfile_0\.s1_addr\[5\]
*1016 top_impl_0\.regfile_0\.s1_addr\[6\]
*1017 top_impl_0\.regfile_0\.s1_out
*1018 top_impl_0\.s1_ui_in\[0\]
*1019 top_impl_0\.s1_ui_in\[1\]
*1020 top_impl_0\.s1_ui_in\[2\]
*1021 top_impl_0\.s1_ui_in\[3\]
*1022 top_impl_0\.s1_ui_in\[4\]
*1023 top_impl_0\.s1_ui_in\[5\]
*1024 top_impl_0\.s1_ui_in\[6\]
*1025 top_impl_0\.s1_ui_in\[7\]
*1026 top_impl_0\.s1_uio_in\[0\]
*1027 top_impl_0\.s1_uio_in\[1\]
*1028 top_impl_0\.s1_uio_in\[2\]
*1029 top_impl_0\.s1_uio_in\[3\]
*1030 top_impl_0\.s1_uio_in\[4\]
*1031 top_impl_0\.s1_uio_in\[5\]
*1032 top_impl_0\.s1_uio_in\[6\]
*1033 top_impl_0\.s1_uio_in\[7\]
*1034 top_impl_0\.s3_commit
*1035 top_impl_0\.s3_mode
*1036 ANTENNA_1
*1037 ANTENNA_2
*1038 FILLER_0_0_109
*1039 FILLER_0_0_113
*1040 FILLER_0_0_125
*1041 FILLER_0_0_133
*1042 FILLER_0_0_139
*1043 FILLER_0_0_144
*1044 FILLER_0_0_15
*1045 FILLER_0_0_156
*1046 FILLER_0_0_169
*1047 FILLER_0_0_191
*1048 FILLER_0_0_195
*1049 FILLER_0_0_197
*1050 FILLER_0_0_209
*1051 FILLER_0_0_221
*1052 FILLER_0_0_241
*1053 FILLER_0_0_249
*1054 FILLER_0_0_253
*1055 FILLER_0_0_265
*1056 FILLER_0_0_27
*1057 FILLER_0_0_277
*1058 FILLER_0_0_281
*1059 FILLER_0_0_29
*1060 FILLER_0_0_293
*1061 FILLER_0_0_3
*1062 FILLER_0_0_305
*1063 FILLER_0_0_309
*1064 FILLER_0_0_321
*1065 FILLER_0_0_333
*1066 FILLER_0_0_337
*1067 FILLER_0_0_349
*1068 FILLER_0_0_41
*1069 FILLER_0_0_53
*1070 FILLER_0_0_57
*1071 FILLER_0_0_69
*1072 FILLER_0_0_81
*1073 FILLER_0_0_85
*1074 FILLER_0_0_97
*1075 FILLER_0_10_102
*1076 FILLER_0_10_11
*1077 FILLER_0_10_110
*1078 FILLER_0_10_151
*1079 FILLER_0_10_159
*1080 FILLER_0_10_17
*1081 FILLER_0_10_186
*1082 FILLER_0_10_194
*1083 FILLER_0_10_224
*1084 FILLER_0_10_236
*1085 FILLER_0_10_251
*1086 FILLER_0_10_253
*1087 FILLER_0_10_265
*1088 FILLER_0_10_277
*1089 FILLER_0_10_289
*1090 FILLER_0_10_295
*1091 FILLER_0_10_3
*1092 FILLER_0_10_307
*1093 FILLER_0_10_309
*1094 FILLER_0_10_321
*1095 FILLER_0_10_349
*1096 FILLER_0_10_60
*1097 FILLER_0_11_103
*1098 FILLER_0_11_111
*1099 FILLER_0_11_129
*1100 FILLER_0_11_135
*1101 FILLER_0_11_138
*1102 FILLER_0_11_15
*1103 FILLER_0_11_157
*1104 FILLER_0_11_165
*1105 FILLER_0_11_174
*1106 FILLER_0_11_182
*1107 FILLER_0_11_201
*1108 FILLER_0_11_207
*1109 FILLER_0_11_216
*1110 FILLER_0_11_223
*1111 FILLER_0_11_225
*1112 FILLER_0_11_23
*1113 FILLER_0_11_271
*1114 FILLER_0_11_287
*1115 FILLER_0_11_3
*1116 FILLER_0_11_33
*1117 FILLER_0_11_346
*1118 FILLER_0_11_350
*1119 FILLER_0_11_37
*1120 FILLER_0_11_46
*1121 FILLER_0_11_71
*1122 FILLER_0_11_81
*1123 FILLER_0_11_91
*1124 FILLER_0_12_106
*1125 FILLER_0_12_123
*1126 FILLER_0_12_141
*1127 FILLER_0_12_161
*1128 FILLER_0_12_176
*1129 FILLER_0_12_214
*1130 FILLER_0_12_218
*1131 FILLER_0_12_223
*1132 FILLER_0_12_229
*1133 FILLER_0_12_23
*1134 FILLER_0_12_236
*1135 FILLER_0_12_240
*1136 FILLER_0_12_27
*1137 FILLER_0_12_277
*1138 FILLER_0_12_29
*1139 FILLER_0_12_3
*1140 FILLER_0_12_306
*1141 FILLER_0_12_317
*1142 FILLER_0_12_327
*1143 FILLER_0_12_345
*1144 FILLER_0_12_49
*1145 FILLER_0_12_60
*1146 FILLER_0_12_80
*1147 FILLER_0_12_85
*1148 FILLER_0_12_91
*1149 FILLER_0_12_98
*1150 FILLER_0_13_102
*1151 FILLER_0_13_108
*1152 FILLER_0_13_113
*1153 FILLER_0_13_137
*1154 FILLER_0_13_145
*1155 FILLER_0_13_150
*1156 FILLER_0_13_158
*1157 FILLER_0_13_166
*1158 FILLER_0_13_174
*1159 FILLER_0_13_182
*1160 FILLER_0_13_194
*1161 FILLER_0_13_206
*1162 FILLER_0_13_222
*1163 FILLER_0_13_23
*1164 FILLER_0_13_230
*1165 FILLER_0_13_242
*1166 FILLER_0_13_258
*1167 FILLER_0_13_281
*1168 FILLER_0_13_285
*1169 FILLER_0_13_293
*1170 FILLER_0_13_3
*1171 FILLER_0_13_313
*1172 FILLER_0_13_325
*1173 FILLER_0_13_337
*1174 FILLER_0_13_346
*1175 FILLER_0_13_350
*1176 FILLER_0_13_84
*1177 FILLER_0_13_96
*1178 FILLER_0_14_136
*1179 FILLER_0_14_147
*1180 FILLER_0_14_15
*1181 FILLER_0_14_153
*1182 FILLER_0_14_19
*1183 FILLER_0_14_191
*1184 FILLER_0_14_195
*1185 FILLER_0_14_197
*1186 FILLER_0_14_206
*1187 FILLER_0_14_223
*1188 FILLER_0_14_229
*1189 FILLER_0_14_249
*1190 FILLER_0_14_274
*1191 FILLER_0_14_282
*1192 FILLER_0_14_29
*1193 FILLER_0_14_3
*1194 FILLER_0_14_340
*1195 FILLER_0_14_348
*1196 FILLER_0_14_90
*1197 FILLER_0_14_94
*1198 FILLER_0_15_105
*1199 FILLER_0_15_111
*1200 FILLER_0_15_134
*1201 FILLER_0_15_140
*1202 FILLER_0_15_146
*1203 FILLER_0_15_15
*1204 FILLER_0_15_161
*1205 FILLER_0_15_167
*1206 FILLER_0_15_169
*1207 FILLER_0_15_175
*1208 FILLER_0_15_187
*1209 FILLER_0_15_199
*1210 FILLER_0_15_215
*1211 FILLER_0_15_223
*1212 FILLER_0_15_240
*1213 FILLER_0_15_248
*1214 FILLER_0_15_27
*1215 FILLER_0_15_273
*1216 FILLER_0_15_279
*1217 FILLER_0_15_281
*1218 FILLER_0_15_3
*1219 FILLER_0_15_337
*1220 FILLER_0_15_349
*1221 FILLER_0_15_49
*1222 FILLER_0_15_55
*1223 FILLER_0_15_57
*1224 FILLER_0_16_128
*1225 FILLER_0_16_136
*1226 FILLER_0_16_141
*1227 FILLER_0_16_149
*1228 FILLER_0_16_15
*1229 FILLER_0_16_181
*1230 FILLER_0_16_194
*1231 FILLER_0_16_222
*1232 FILLER_0_16_234
*1233 FILLER_0_16_242
*1234 FILLER_0_16_251
*1235 FILLER_0_16_269
*1236 FILLER_0_16_27
*1237 FILLER_0_16_298
*1238 FILLER_0_16_3
*1239 FILLER_0_16_346
*1240 FILLER_0_16_350
*1241 FILLER_0_16_45
*1242 FILLER_0_16_53
*1243 FILLER_0_16_71
*1244 FILLER_0_16_75
*1245 FILLER_0_16_83
*1246 FILLER_0_16_98
*1247 FILLER_0_17_106
*1248 FILLER_0_17_118
*1249 FILLER_0_17_136
*1250 FILLER_0_17_144
*1251 FILLER_0_17_167
*1252 FILLER_0_17_169
*1253 FILLER_0_17_180
*1254 FILLER_0_17_184
*1255 FILLER_0_17_212
*1256 FILLER_0_17_225
*1257 FILLER_0_17_237
*1258 FILLER_0_17_244
*1259 FILLER_0_17_251
*1260 FILLER_0_17_259
*1261 FILLER_0_17_268
*1262 FILLER_0_17_277
*1263 FILLER_0_17_29
*1264 FILLER_0_17_3
*1265 FILLER_0_17_303
*1266 FILLER_0_17_333
*1267 FILLER_0_17_345
*1268 FILLER_0_17_51
*1269 FILLER_0_17_55
*1270 FILLER_0_17_57
*1271 FILLER_0_17_69
*1272 FILLER_0_17_81
*1273 FILLER_0_17_9
*1274 FILLER_0_17_94
*1275 FILLER_0_18_101
*1276 FILLER_0_18_113
*1277 FILLER_0_18_138
*1278 FILLER_0_18_149
*1279 FILLER_0_18_153
*1280 FILLER_0_18_180
*1281 FILLER_0_18_203
*1282 FILLER_0_18_224
*1283 FILLER_0_18_23
*1284 FILLER_0_18_244
*1285 FILLER_0_18_257
*1286 FILLER_0_18_269
*1287 FILLER_0_18_277
*1288 FILLER_0_18_285
*1289 FILLER_0_18_29
*1290 FILLER_0_18_293
*1291 FILLER_0_18_299
*1292 FILLER_0_18_3
*1293 FILLER_0_18_305
*1294 FILLER_0_18_309
*1295 FILLER_0_18_317
*1296 FILLER_0_18_325
*1297 FILLER_0_18_343
*1298 FILLER_0_18_39
*1299 FILLER_0_18_55
*1300 FILLER_0_18_72
*1301 FILLER_0_18_79
*1302 FILLER_0_19_11
*1303 FILLER_0_19_111
*1304 FILLER_0_19_113
*1305 FILLER_0_19_137
*1306 FILLER_0_19_149
*1307 FILLER_0_19_159
*1308 FILLER_0_19_167
*1309 FILLER_0_19_197
*1310 FILLER_0_19_206
*1311 FILLER_0_19_217
*1312 FILLER_0_19_223
*1313 FILLER_0_19_231
*1314 FILLER_0_19_254
*1315 FILLER_0_19_266
*1316 FILLER_0_19_3
*1317 FILLER_0_19_302
*1318 FILLER_0_19_314
*1319 FILLER_0_19_337
*1320 FILLER_0_19_349
*1321 FILLER_0_19_48
*1322 FILLER_0_19_57
*1323 FILLER_0_19_92
*1324 FILLER_0_1_105
*1325 FILLER_0_1_111
*1326 FILLER_0_1_113
*1327 FILLER_0_1_15
*1328 FILLER_0_1_151
*1329 FILLER_0_1_163
*1330 FILLER_0_1_167
*1331 FILLER_0_1_169
*1332 FILLER_0_1_173
*1333 FILLER_0_1_204
*1334 FILLER_0_1_216
*1335 FILLER_0_1_257
*1336 FILLER_0_1_269
*1337 FILLER_0_1_27
*1338 FILLER_0_1_277
*1339 FILLER_0_1_281
*1340 FILLER_0_1_293
*1341 FILLER_0_1_3
*1342 FILLER_0_1_305
*1343 FILLER_0_1_317
*1344 FILLER_0_1_329
*1345 FILLER_0_1_335
*1346 FILLER_0_1_337
*1347 FILLER_0_1_349
*1348 FILLER_0_1_39
*1349 FILLER_0_1_51
*1350 FILLER_0_1_55
*1351 FILLER_0_1_57
*1352 FILLER_0_1_69
*1353 FILLER_0_1_81
*1354 FILLER_0_1_93
*1355 FILLER_0_20_105
*1356 FILLER_0_20_131
*1357 FILLER_0_20_139
*1358 FILLER_0_20_141
*1359 FILLER_0_20_149
*1360 FILLER_0_20_177
*1361 FILLER_0_20_189
*1362 FILLER_0_20_195
*1363 FILLER_0_20_213
*1364 FILLER_0_20_240
*1365 FILLER_0_20_250
*1366 FILLER_0_20_253
*1367 FILLER_0_20_261
*1368 FILLER_0_20_27
*1369 FILLER_0_20_29
*1370 FILLER_0_20_297
*1371 FILLER_0_20_3
*1372 FILLER_0_20_305
*1373 FILLER_0_20_309
*1374 FILLER_0_20_343
*1375 FILLER_0_20_52
*1376 FILLER_0_20_68
*1377 FILLER_0_20_83
*1378 FILLER_0_21_110
*1379 FILLER_0_21_113
*1380 FILLER_0_21_131
*1381 FILLER_0_21_143
*1382 FILLER_0_21_15
*1383 FILLER_0_21_181
*1384 FILLER_0_21_189
*1385 FILLER_0_21_200
*1386 FILLER_0_21_212
*1387 FILLER_0_21_221
*1388 FILLER_0_21_23
*1389 FILLER_0_21_238
*1390 FILLER_0_21_253
*1391 FILLER_0_21_265
*1392 FILLER_0_21_3
*1393 FILLER_0_21_313
*1394 FILLER_0_21_318
*1395 FILLER_0_21_340
*1396 FILLER_0_21_348
*1397 FILLER_0_21_53
*1398 FILLER_0_21_57
*1399 FILLER_0_21_71
*1400 FILLER_0_21_98
*1401 FILLER_0_22_11
*1402 FILLER_0_22_141
*1403 FILLER_0_22_149
*1404 FILLER_0_22_168
*1405 FILLER_0_22_180
*1406 FILLER_0_22_184
*1407 FILLER_0_22_193
*1408 FILLER_0_22_209
*1409 FILLER_0_22_215
*1410 FILLER_0_22_226
*1411 FILLER_0_22_230
*1412 FILLER_0_22_250
*1413 FILLER_0_22_257
*1414 FILLER_0_22_29
*1415 FILLER_0_22_3
*1416 FILLER_0_22_339
*1417 FILLER_0_22_85
*1418 FILLER_0_22_93
*1419 FILLER_0_23_108
*1420 FILLER_0_23_117
*1421 FILLER_0_23_124
*1422 FILLER_0_23_155
*1423 FILLER_0_23_166
*1424 FILLER_0_23_174
*1425 FILLER_0_23_220
*1426 FILLER_0_23_225
*1427 FILLER_0_23_235
*1428 FILLER_0_23_260
*1429 FILLER_0_23_268
*1430 FILLER_0_23_276
*1431 FILLER_0_23_3
*1432 FILLER_0_23_326
*1433 FILLER_0_23_334
*1434 FILLER_0_23_337
*1435 FILLER_0_23_349
*1436 FILLER_0_23_42
*1437 FILLER_0_23_54
*1438 FILLER_0_23_78
*1439 FILLER_0_23_84
*1440 FILLER_0_23_9
*1441 FILLER_0_24_11
*1442 FILLER_0_24_116
*1443 FILLER_0_24_132
*1444 FILLER_0_24_147
*1445 FILLER_0_24_159
*1446 FILLER_0_24_167
*1447 FILLER_0_24_179
*1448 FILLER_0_24_191
*1449 FILLER_0_24_195
*1450 FILLER_0_24_213
*1451 FILLER_0_24_239
*1452 FILLER_0_24_251
*1453 FILLER_0_24_253
*1454 FILLER_0_24_272
*1455 FILLER_0_24_280
*1456 FILLER_0_24_286
*1457 FILLER_0_24_29
*1458 FILLER_0_24_298
*1459 FILLER_0_24_3
*1460 FILLER_0_24_302
*1461 FILLER_0_24_309
*1462 FILLER_0_24_321
*1463 FILLER_0_24_327
*1464 FILLER_0_24_344
*1465 FILLER_0_24_350
*1466 FILLER_0_24_47
*1467 FILLER_0_24_59
*1468 FILLER_0_24_81
*1469 FILLER_0_25_102
*1470 FILLER_0_25_106
*1471 FILLER_0_25_121
*1472 FILLER_0_25_147
*1473 FILLER_0_25_15
*1474 FILLER_0_25_156
*1475 FILLER_0_25_160
*1476 FILLER_0_25_167
*1477 FILLER_0_25_187
*1478 FILLER_0_25_195
*1479 FILLER_0_25_21
*1480 FILLER_0_25_210
*1481 FILLER_0_25_218
*1482 FILLER_0_25_265
*1483 FILLER_0_25_269
*1484 FILLER_0_25_279
*1485 FILLER_0_25_286
*1486 FILLER_0_25_293
*1487 FILLER_0_25_3
*1488 FILLER_0_25_305
*1489 FILLER_0_25_318
*1490 FILLER_0_25_346
*1491 FILLER_0_25_350
*1492 FILLER_0_25_43
*1493 FILLER_0_25_55
*1494 FILLER_0_25_57
*1495 FILLER_0_25_69
*1496 FILLER_0_25_79
*1497 FILLER_0_25_91
*1498 FILLER_0_26_106
*1499 FILLER_0_26_123
*1500 FILLER_0_26_137
*1501 FILLER_0_26_146
*1502 FILLER_0_26_15
*1503 FILLER_0_26_155
*1504 FILLER_0_26_207
*1505 FILLER_0_26_219
*1506 FILLER_0_26_223
*1507 FILLER_0_26_23
*1508 FILLER_0_26_251
*1509 FILLER_0_26_267
*1510 FILLER_0_26_3
*1511 FILLER_0_26_307
*1512 FILLER_0_26_309
*1513 FILLER_0_26_348
*1514 FILLER_0_26_56
*1515 FILLER_0_26_64
*1516 FILLER_0_26_77
*1517 FILLER_0_26_83
*1518 FILLER_0_26_94
*1519 FILLER_0_27_105
*1520 FILLER_0_27_120
*1521 FILLER_0_27_145
*1522 FILLER_0_27_157
*1523 FILLER_0_27_221
*1524 FILLER_0_27_225
*1525 FILLER_0_27_231
*1526 FILLER_0_27_262
*1527 FILLER_0_27_274
*1528 FILLER_0_27_285
*1529 FILLER_0_27_3
*1530 FILLER_0_27_312
*1531 FILLER_0_27_348
*1532 FILLER_0_27_57
*1533 FILLER_0_27_7
*1534 FILLER_0_27_99
*1535 FILLER_0_28_105
*1536 FILLER_0_28_11
*1537 FILLER_0_28_118
*1538 FILLER_0_28_138
*1539 FILLER_0_28_141
*1540 FILLER_0_28_153
*1541 FILLER_0_28_165
*1542 FILLER_0_28_174
*1543 FILLER_0_28_197
*1544 FILLER_0_28_201
*1545 FILLER_0_28_218
*1546 FILLER_0_28_230
*1547 FILLER_0_28_250
*1548 FILLER_0_28_269
*1549 FILLER_0_28_292
*1550 FILLER_0_28_3
*1551 FILLER_0_28_304
*1552 FILLER_0_28_309
*1553 FILLER_0_28_313
*1554 FILLER_0_28_37
*1555 FILLER_0_28_41
*1556 FILLER_0_28_72
*1557 FILLER_0_28_80
*1558 FILLER_0_28_85
*1559 FILLER_0_29_107
*1560 FILLER_0_29_111
*1561 FILLER_0_29_121
*1562 FILLER_0_29_134
*1563 FILLER_0_29_154
*1564 FILLER_0_29_166
*1565 FILLER_0_29_169
*1566 FILLER_0_29_183
*1567 FILLER_0_29_223
*1568 FILLER_0_29_225
*1569 FILLER_0_29_233
*1570 FILLER_0_29_248
*1571 FILLER_0_29_265
*1572 FILLER_0_29_281
*1573 FILLER_0_29_3
*1574 FILLER_0_29_301
*1575 FILLER_0_29_315
*1576 FILLER_0_29_333
*1577 FILLER_0_29_345
*1578 FILLER_0_29_51
*1579 FILLER_0_29_55
*1580 FILLER_0_29_57
*1581 FILLER_0_29_73
*1582 FILLER_0_29_81
*1583 FILLER_0_2_109
*1584 FILLER_0_2_115
*1585 FILLER_0_2_141
*1586 FILLER_0_2_15
*1587 FILLER_0_2_160
*1588 FILLER_0_2_168
*1589 FILLER_0_2_195
*1590 FILLER_0_2_205
*1591 FILLER_0_2_209
*1592 FILLER_0_2_247
*1593 FILLER_0_2_251
*1594 FILLER_0_2_261
*1595 FILLER_0_2_27
*1596 FILLER_0_2_273
*1597 FILLER_0_2_285
*1598 FILLER_0_2_29
*1599 FILLER_0_2_297
*1600 FILLER_0_2_3
*1601 FILLER_0_2_305
*1602 FILLER_0_2_309
*1603 FILLER_0_2_321
*1604 FILLER_0_2_333
*1605 FILLER_0_2_345
*1606 FILLER_0_2_41
*1607 FILLER_0_2_53
*1608 FILLER_0_2_65
*1609 FILLER_0_2_77
*1610 FILLER_0_2_83
*1611 FILLER_0_2_85
*1612 FILLER_0_2_97
*1613 FILLER_0_30_11
*1614 FILLER_0_30_118
*1615 FILLER_0_30_128
*1616 FILLER_0_30_138
*1617 FILLER_0_30_141
*1618 FILLER_0_30_155
*1619 FILLER_0_30_172
*1620 FILLER_0_30_189
*1621 FILLER_0_30_195
*1622 FILLER_0_30_197
*1623 FILLER_0_30_203
*1624 FILLER_0_30_212
*1625 FILLER_0_30_216
*1626 FILLER_0_30_228
*1627 FILLER_0_30_242
*1628 FILLER_0_30_250
*1629 FILLER_0_30_253
*1630 FILLER_0_30_265
*1631 FILLER_0_30_3
*1632 FILLER_0_30_317