*SPEF "ieee 1481-1999"
*DESIGN "tt_um_devinatkin_arduino_vga"
*DATE "11:11:11 Fri 11 11, 1111"
*VENDOR "OpenRCX"
*PROGRAM "Parallel Extraction"
*VERSION "1.0"
*DESIGN_FLOW "NAME_SCOPE LOCAL" "PIN_CAP NONE"
*DIVIDER /
*DELIMITER :
*BUS_DELIMITER []
*T_UNIT 1 NS
*C_UNIT 1 PF
*R_UNIT 1 OHM
*L_UNIT 1 HENRY

*NAME_MAP
*3 clk
*4 ena
*5 rst_n
*6 ui_in[0]
*7 ui_in[1]
*8 ui_in[2]
*9 ui_in[3]
*10 ui_in[4]
*11 ui_in[5]
*12 ui_in[6]
*13 ui_in[7]
*14 uio_in[0]
*15 uio_in[1]
*16 uio_in[2]
*17 uio_in[3]
*18 uio_in[4]
*19 uio_in[5]
*20 uio_in[6]
*21 uio_in[7]
*22 net33
*23 net18
*24 net19
*25 net20
*26 net21
*27 net22
*28 net23
*29 net24
*30 uio_out[0]
*31 net25
*32 net26
*33 net27
*34 net28
*35 net29
*36 net30
*37 net31
*38 uo_out[0]
*39 uo_out[1]
*40 uo_out[2]
*41 uo_out[3]
*42 uo_out[4]
*43 uo_out[5]
*44 uo_out[6]
*45 uo_out[7]
*46 _0000_
*47 _0001_
*48 _0002_
*49 _0003_
*50 _0004_
*51 _0005_
*52 _0006_
*53 _0007_
*54 _0008_
*55 _0009_
*56 _0010_
*57 _0011_
*58 _0012_
*59 _0013_
*60 _0014_
*61 _0015_
*62 _0016_
*63 _0017_
*64 _0018_
*65 _0019_
*66 _0020_
*67 _0021_
*68 _0022_
*69 _0023_
*70 _0024_
*71 _0025_
*72 _0026_
*73 _0027_
*74 _0028_
*75 _0029_
*76 _0030_
*77 _0031_
*78 _0032_
*79 _0033_
*80 _0034_
*81 _0035_
*82 _0036_
*83 _0037_
*84 _0038_
*85 _0039_
*86 _0040_
*87 _0041_
*88 _0042_
*89 _0043_
*90 _0044_
*91 _0045_
*92 _0046_
*93 _0047_
*94 _0048_
*95 _0049_
*96 _0050_
*97 _0051_
*98 _0052_
*99 _0053_
*100 _0054_
*101 _0055_
*102 _0056_
*103 _0057_
*104 _0058_
*105 _0059_
*106 _0060_
*107 _0061_
*108 _0062_
*109 _0063_
*110 _0064_
*111 _0065_
*112 _0066_
*113 _0067_
*114 _0068_
*115 _0069_
*116 _0070_
*117 _0071_
*118 _0072_
*119 _0073_
*120 _0074_
*121 _0075_
*122 _0076_
*123 _0077_
*124 _0078_
*125 _0079_
*126 _0080_
*127 _0081_
*128 _0082_
*129 _0083_
*130 _0084_
*131 _0085_
*132 _0086_
*133 _0087_
*134 _0088_
*135 _0089_
*136 _0090_
*137 _0091_
*138 _0092_
*139 _0093_
*140 _0094_
*141 _0095_
*142 _0096_
*143 _0097_
*144 _0098_
*145 _0099_
*146 _0100_
*147 _0101_
*148 _0102_
*149 _0103_
*150 _0104_
*151 _0105_
*152 _0106_
*153 _0107_
*154 _0108_
*155 _0109_
*156 _0110_
*157 _0111_
*158 _0112_
*159 _0113_
*160 _0114_
*161 _0115_
*162 _0116_
*163 _0117_
*164 _0118_
*165 _0119_
*166 _0120_
*167 _0121_
*168 _0122_
*169 _0123_
*170 _0124_
*171 _0125_
*172 _0126_
*173 _0127_
*174 _0128_
*175 _0129_
*176 _0130_
*177 _0131_
*178 _0132_
*179 _0133_
*180 _0134_
*181 _0135_
*182 _0136_
*183 _0137_
*184 _0138_
*185 _0139_
*186 _0140_
*187 _0141_
*188 _0142_
*189 _0143_
*190 _0144_
*191 _0145_
*192 _0146_
*193 _0147_
*194 _0148_
*195 _0149_
*196 _0150_
*197 _0151_
*198 _0152_
*199 _0153_
*200 _0154_
*201 _0155_
*202 _0156_
*203 _0157_
*204 _0158_
*205 _0159_
*206 _0160_
*207 _0161_
*208 _0162_
*209 _0163_
*210 _0164_
*211 _0166_
*212 _0167_
*213 _0168_
*214 _0169_
*215 _0170_
*216 _0171_
*217 _0172_
*218 _0173_
*219 _0174_
*220 _0175_
*221 _0176_
*222 _0177_
*223 _0178_
*224 _0179_
*225 _0180_
*226 _0181_
*227 _0182_
*228 _0183_
*229 _0184_
*230 _0185_
*231 _0186_
*232 _0187_
*233 _0188_
*234 _0189_
*235 _0190_
*236 _0191_
*237 _0192_
*238 _0193_
*239 _0194_
*240 _0195_
*241 _0196_
*242 _0197_
*243 _0198_
*244 _0199_
*245 _0200_
*246 _0201_
*247 _0202_
*248 _0203_
*249 _0204_
*250 _0205_
*251 _0206_
*252 _0207_
*253 _0208_
*254 _0209_
*255 _0210_
*256 _0211_
*257 _0212_
*258 _0213_
*259 _0214_
*260 _0215_
*261 _0216_
*262 _0217_
*263 _0218_
*264 _0219_
*265 _0220_
*266 _0221_
*267 _0222_
*268 _0223_
*269 _0224_
*270 _0225_
*271 _0226_
*272 _0227_
*273 _0228_
*274 _0229_
*275 _0230_
*276 _0231_
*277 _0232_
*278 _0233_
*279 _0234_
*280 _0235_
*281 _0236_
*282 _0237_
*283 _0238_
*284 _0239_
*285 _0240_
*286 _0241_
*287 _0242_
*288 _0243_
*289 _0244_
*290 _0245_
*291 _0246_
*292 _0247_
*293 _0248_
*294 _0249_
*295 _0250_
*296 _0251_
*297 _0252_
*298 _0253_
*299 _0254_
*300 _0255_
*301 _0256_
*302 _0257_
*303 _0258_
*304 _0259_
*305 _0260_
*306 _0261_
*307 _0262_
*308 _0263_
*309 _0264_
*310 _0265_
*311 _0266_
*312 _0267_
*313 _0268_
*314 _0269_
*315 _0270_
*316 _0271_
*317 _0272_
*318 _0273_
*319 _0274_
*320 _0275_
*321 _0276_
*322 _0277_
*323 _0278_
*324 _0279_
*325 _0280_
*326 _0281_
*327 _0282_
*328 _0283_
*329 _0284_
*330 _0285_
*331 _0286_
*332 _0287_
*333 _0288_
*334 _0289_
*335 _0290_
*336 _0291_
*337 _0292_
*338 _0293_
*339 _0294_
*340 _0295_
*341 _0296_
*342 _0297_
*343 _0298_
*344 _0299_
*345 _0300_
*346 _0301_
*347 _0302_
*348 _0303_
*349 _0304_
*350 _0305_
*351 _0306_
*352 _0307_
*353 _0308_
*354 _0309_
*355 _0310_
*356 _0311_
*357 _0312_
*358 _0313_
*359 _0314_
*360 _0315_
*361 _0316_
*362 _0317_
*363 _0318_
*364 _0319_
*365 _0320_
*366 _0321_
*367 _0322_
*368 _0323_
*369 _0324_
*370 _0325_
*371 _0326_
*372 _0327_
*373 _0328_
*374 _0329_
*375 _0330_
*376 _0331_
*377 _0332_
*378 _0333_
*379 _0334_
*380 _0335_
*381 _0336_
*382 _0337_
*383 _0338_
*384 _0339_
*385 _0340_
*386 _0341_
*387 _0342_
*388 _0343_
*389 _0344_
*390 _0345_
*391 _0346_
*392 _0347_
*393 _0348_
*394 _0349_
*395 _0350_
*396 _0351_
*397 _0352_
*398 _0353_
*399 _0354_
*400 _0355_
*401 _0356_
*402 _0357_
*403 _0358_
*404 _0359_
*405 _0360_
*406 _0361_
*407 _0362_
*408 _0363_
*409 _0364_
*410 _0365_
*411 _0366_
*412 _0367_
*413 _0368_
*414 _0369_
*415 _0370_
*416 _0371_
*417 _0372_
*418 _0373_
*419 _0374_
*420 _0375_
*421 _0376_
*422 _0377_
*423 _0378_
*424 _0379_
*425 _0380_
*426 _0381_
*427 _0382_
*428 _0383_
*429 _0384_
*430 _0385_
*431 _0386_
*432 _0387_
*433 _0388_
*434 _0389_
*435 _0390_
*436 _0391_
*437 _0392_
*438 _0393_
*439 _0394_
*440 _0395_
*441 _0396_
*442 _0397_
*443 _0398_
*444 _0399_
*445 _0400_
*446 _0401_
*447 _0402_
*448 _0403_
*449 _0404_
*450 _0405_
*451 _0406_
*452 _0407_
*453 _0408_
*454 _0409_
*455 _0410_
*456 _0411_
*457 _0412_
*458 _0413_
*459 _0414_
*460 _0415_
*461 _0416_
*462 _0417_
*463 _0418_
*464 _0419_
*465 _0420_
*466 _0421_
*467 _0422_
*468 _0423_
*469 _0424_
*470 _0425_
*471 _0426_
*472 _0427_
*473 _0428_
*474 _0429_
*475 _0430_
*476 _0431_
*477 _0432_
*478 _0433_
*479 _0434_
*480 _0435_
*481 _0436_
*482 _0437_
*483 _0438_
*484 _0439_
*485 _0440_
*486 _0441_
*487 _0442_
*488 _0443_
*489 _0444_
*490 _0445_
*491 _0446_
*492 _0447_
*493 _0448_
*494 _0449_
*495 _0450_
*496 _0451_
*497 _0452_
*498 _0453_
*499 _0454_
*500 _0455_
*501 _0456_
*502 _0457_
*503 _0458_
*504 _0459_
*505 _0460_
*506 _0461_
*507 _0462_
*508 _0463_
*509 _0464_
*510 _0465_
*511 _0466_
*512 _0467_
*513 _0468_
*514 _0469_
*515 _0470_
*516 _0471_
*517 _0472_
*518 _0473_
*519 _0474_
*520 _0475_
*521 _0476_
*522 _0477_
*523 _0478_
*524 _0479_
*525 _0480_
*526 _0481_
*527 _0482_
*528 _0483_
*529 _0484_
*530 _0485_
*531 _0486_
*532 _0487_
*533 _0488_
*534 _0489_
*535 _0490_
*536 _0491_
*537 _0492_
*538 _0493_
*539 _0494_
*540 _0495_
*541 _0496_
*542 _0497_
*543 _0498_
*544 _0499_
*545 _0500_
*546 _0501_
*547 _0502_
*548 _0503_
*549 _0504_
*550 _0505_
*551 _0506_
*552 _0507_
*553 _0508_
*554 _0509_
*555 _0510_
*556 _0511_
*557 _0512_
*558 _0513_
*559 _0514_
*560 _0515_
*561 _0516_
*562 _0517_
*563 _0518_
*564 _0519_
*565 _0520_
*566 _0521_
*567 _0522_
*568 _0523_
*569 _0524_
*570 _0525_
*571 _0526_
*572 _0527_
*573 _0528_
*574 _0529_
*575 _0530_
*576 _0531_
*577 _0532_
*578 _0533_
*579 _0534_
*580 _0535_
*581 _0536_
*582 _0537_
*583 _0538_
*584 _0539_
*585 _0540_
*586 _0541_
*587 _0542_
*588 _0543_
*589 _0544_
*590 _0545_
*591 _0546_
*592 _0547_
*593 _0548_
*594 _0549_
*595 _0550_
*596 _0551_
*597 _0552_
*598 _0553_
*599 _0554_
*600 _0555_
*601 _0556_
*602 _0557_
*603 _0558_
*604 _0559_
*605 _0560_
*606 _0561_
*607 _0562_
*608 _0563_
*609 _0564_
*610 _0565_
*611 _0566_
*612 _0567_
*613 _0568_
*614 _0569_
*615 _0570_
*616 _0571_
*617 _0572_
*618 _0573_
*619 _0574_
*620 _0575_
*621 _0576_
*622 _0577_
*623 _0578_
*624 _0579_
*625 _0580_
*626 _0581_
*627 _0582_
*628 _0583_
*629 _0584_
*630 _0585_
*631 _0586_
*632 _0587_
*633 _0588_
*634 _0589_
*635 _0590_
*636 _0591_
*637 _0592_
*638 _0593_
*639 _0594_
*640 _0595_
*641 _0596_
*642 _0597_
*643 _0598_
*644 _0599_
*645 _0600_
*646 _0601_
*647 _0602_
*648 _0603_
*649 _0604_
*650 _0605_
*651 _0606_
*652 _0607_
*653 _0608_
*654 _0609_
*655 _0610_
*656 _0611_
*657 _0612_
*658 _0613_
*659 _0614_
*660 _0615_
*661 _0616_
*662 _0617_
*663 _0618_
*664 _0619_
*665 _0620_
*666 _0621_
*667 _0622_
*668 _0623_
*669 _0624_
*670 _0625_
*671 _0626_
*672 _0627_
*673 _0628_
*674 _0629_
*675 _0630_
*676 _0631_
*677 _0632_
*678 _0633_
*679 _0634_
*680 _0635_
*681 _0636_
*682 _0637_
*683 _0638_
*684 _0639_
*685 _0640_
*686 _0641_
*687 _0642_
*688 _0643_
*689 _0644_
*690 _0645_
*691 _0646_
*692 _0647_
*693 _0648_
*694 _0649_
*695 _0650_
*696 _0651_
*697 _0652_
*698 _0653_
*699 _0654_
*700 _0655_
*701 _0656_
*702 _0657_
*703 _0658_
*704 _0659_
*705 _0660_
*706 _0661_
*707 _0662_
*708 _0663_
*709 _0664_
*710 _0665_
*711 _0666_
*712 _0667_
*713 _0668_
*714 _0669_
*715 _0670_
*716 _0671_
*717 _0672_
*718 _0673_
*719 _0674_
*720 _0675_
*721 _0676_
*722 _0677_
*723 _0678_
*724 _0679_
*725 _0680_
*726 _0681_
*727 _0682_
*728 _0683_
*729 _0684_
*730 _0685_
*731 _0686_
*732 _0687_
*733 _0688_
*734 _0689_
*735 _0690_
*736 _0691_
*737 _0692_
*738 _0693_
*739 _0694_
*740 _0695_
*741 _0696_
*742 _0697_
*743 _0698_
*744 _0699_
*745 _0700_
*746 _0701_
*747 _0702_
*748 _0703_
*749 _0704_
*750 _0705_
*751 _0706_
*752 _0707_
*753 _0708_
*754 _0709_
*755 _0710_
*756 _0711_
*757 _0712_
*758 _0713_
*759 _0714_
*760 _0715_
*761 _0716_
*762 _0717_
*763 _0718_
*764 _0719_
*765 _0720_
*766 _0721_
*767 _0722_
*768 _0723_
*769 _0724_
*770 _0725_
*771 _0726_
*772 _0727_
*773 _0728_
*774 _0729_
*775 _0730_
*776 _0731_
*777 _0732_
*778 _0733_
*779 _0734_
*780 _0735_
*781 _0736_
*782 _0737_
*783 _0738_
*784 _0739_
*785 _0740_
*786 _0741_
*787 _0742_
*788 _0743_
*789 _0744_
*790 _0745_
*791 _0746_
*792 _0747_
*793 _0748_
*794 _0749_
*795 _0750_
*796 _0751_
*797 _0752_
*798 _0753_
*799 _0754_
*800 _0755_
*801 _0756_
*802 _0757_
*803 _0758_
*804 _0759_
*805 _0760_
*806 _0761_
*807 _0762_
*808 _0763_
*809 _0764_
*810 _0765_
*811 _0766_
*812 _0767_
*813 _0768_
*814 _0769_
*815 _0770_
*816 _0771_
*817 _0772_
*818 _0773_
*819 _0774_
*820 _0775_
*821 _0776_
*822 _0777_
*823 _0778_
*824 _0779_
*825 _0780_
*826 _0781_
*827 _0782_
*828 _0783_
*829 _0784_
*830 _0785_
*831 _0786_
*832 _0787_
*833 _0788_
*834 _0789_
*835 _0790_
*836 _0791_
*837 _0792_
*838 _0793_
*839 _0794_
*840 _0795_
*841 _0796_
*842 _0797_
*843 _0798_
*844 _0799_
*845 _0800_
*846 _0801_
*847 _0802_
*848 _0803_
*849 _0804_
*850 _0805_
*851 _0806_
*852 _0807_
*853 _0808_
*854 _0809_
*855 _0810_
*856 _0811_
*857 _0812_
*858 _0813_
*859 _0814_
*860 _0815_
*861 _0816_
*862 _0817_
*863 _0818_
*864 _0819_
*865 _0820_
*866 _0821_
*867 _0822_
*868 _0823_
*869 _0824_
*870 _0825_
*871 _0826_
*872 _0827_
*873 _0828_
*874 _0829_
*875 _0830_
*876 _0831_
*877 _0832_
*878 _0833_
*879 _0834_
*880 _0835_
*881 _0836_
*882 _0837_
*883 _0838_
*884 _0839_
*885 _0840_
*886 _0841_
*887 _0842_
*888 _0843_
*889 _0844_
*890 _0845_
*891 _0846_
*892 _0847_
*893 _0848_
*894 _0849_
*895 _0850_
*896 _0851_
*897 _0852_
*898 _0853_
*899 _0854_
*900 _0855_
*901 _0856_
*902 _0857_
*903 _0858_
*904 _0859_
*905 _0860_
*906 _0861_
*907 _0862_
*908 _0863_
*909 _0864_
*910 _0865_
*911 _0866_
*912 _0867_
*913 _0868_
*914 _0869_
*915 _0870_
*916 _0871_
*917 _0872_
*918 _0873_
*919 _0874_
*920 _0875_
*921 _0876_
*922 _0877_
*923 _0878_
*924 _0879_
*925 _0880_
*926 _0881_
*927 _0882_
*928 _0883_
*929 _0884_
*930 _0885_
*931 _0886_
*932 _0887_
*933 _0888_
*934 _0889_
*935 _0890_
*936 _0891_
*937 _0892_
*938 _0893_
*939 _0894_
*940 _0895_
*941 _0896_
*942 _0897_
*943 _0898_
*944 _0899_
*945 _0900_
*946 _0901_
*947 _0902_
*948 _0903_
*949 _0904_
*950 _0905_
*951 _0906_
*952 _0907_
*953 _0908_
*954 _0909_
*955 _0910_
*956 _0911_
*957 _0912_
*958 _0913_
*959 _0914_
*960 _0915_
*961 _0916_
*962 _0917_
*963 _0918_
*964 _0919_
*965 _0920_
*966 _0921_
*967 _0922_
*968 _0923_
*969 _0924_
*970 _0925_
*971 _0926_
*972 _0927_
*973 _0928_
*974 _0929_
*975 _0930_
*976 _0931_
*977 _0932_
*978 _0933_
*979 _0934_
*980 _0935_
*981 _0936_
*982 _0937_
*983 _0938_
*984 _0939_
*985 _0940_
*986 _0941_
*987 _0942_
*988 _0943_
*989 _0944_
*990 _0945_
*991 _0946_
*992 _0947_
*993 _0948_
*994 _0949_
*995 _0950_
*996 _0951_
*997 _0952_
*998 _0953_
*999 _0954_
*1000 _0955_
*1001 _0956_
*1002 _0957_
*1003 _0958_
*1004 _0959_
*1005 _0960_
*1006 _0961_
*1007 _0962_
*1008 _0963_
*1009 _0964_
*1010 _0965_
*1011 _0966_
*1012 _0967_
*1013 _0968_
*1014 _0969_
*1015 _0970_
*1016 _0971_
*1017 _0972_
*1018 _0973_
*1019 _0974_
*1020 _0975_
*1021 _0976_
*1022 _0977_
*1023 _0978_
*1024 _0979_
*1025 _0980_
*1026 _0981_
*1027 _0982_
*1028 _0983_
*1029 _0984_
*1030 _0985_
*1031 _0986_
*1032 _0987_
*1033 _0988_
*1034 _0989_
*1035 _0990_
*1036 _0991_
*1037 _0992_
*1038 _0993_
*1039 _0994_
*1040 _0995_
*1041 _0996_
*1042 _0997_
*1043 _0998_
*1044 _0999_
*1045 _1000_
*1046 _1001_
*1047 _1002_
*1048 _1003_
*1049 _1004_
*1050 _1005_
*1051 _1006_
*1052 _1007_
*1053 _1008_
*1054 _1009_
*1055 _1010_
*1056 _1011_
*1057 _1012_
*1058 _1013_
*1059 _1014_
*1060 _1015_
*1061 _1016_
*1062 _1017_
*1063 _1018_
*1064 _1019_
*1065 _1020_
*1066 _1021_
*1067 _1022_
*1068 _1023_
*1069 _1024_
*1070 _1025_
*1071 _1026_
*1072 _1027_
*1073 _1028_
*1074 _1029_
*1075 _1030_
*1076 _1031_
*1077 _1032_
*1078 _1033_
*1079 _1034_
*1080 _1035_
*1081 _1036_
*1082 _1037_
*1083 _1038_
*1084 _1039_
*1085 _1040_
*1086 _1041_
*1087 _1042_
*1088 _1043_
*1089 _1044_
*1090 _1045_
*1091 _1046_
*1092 _1047_
*1093 _1048_
*1094 _1049_
*1095 _1050_
*1096 _1051_
*1097 _1052_
*1098 _1053_
*1099 _1054_
*1100 clknet_0_clk
*1101 clknet_1_0__leaf_clk
*1102 clknet_1_1__leaf_clk
*1103 clknet_leaf_0_clk
*1104 clknet_leaf_10_clk
*1105 clknet_leaf_11_clk
*1106 clknet_leaf_12_clk
*1107 clknet_leaf_1_clk
*1108 clknet_leaf_2_clk
*1109 clknet_leaf_3_clk
*1110 clknet_leaf_4_clk
*1111 clknet_leaf_5_clk
*1112 clknet_leaf_6_clk
*1113 clknet_leaf_7_clk
*1114 clknet_leaf_8_clk
*1115 clknet_leaf_9_clk
*1116 config_m\.config_out\[0\]
*1117 config_m\.config_out\[10\]
*1118 config_m\.config_out\[11\]
*1119 config_m\.config_out\[12\]
*1120 config_m\.config_out\[13\]
*1121 config_m\.config_out\[14\]
*1122 config_m\.config_out\[15\]
*1123 config_m\.config_out\[16\]
*1124 config_m\.config_out\[17\]
*1125 config_m\.config_out\[18\]
*1126 config_m\.config_out\[19\]
*1127 config_m\.config_out\[1\]
*1128 config_m\.config_out\[20\]
*1129 config_m\.config_out\[21\]
*1130 config_m\.config_out\[22\]
*1131 config_m\.config_out\[23\]
*1132 config_m\.config_out\[24\]
*1133 config_m\.config_out\[25\]
*1134 config_m\.config_out\[26\]
*1135 config_m\.config_out\[27\]
*1136 config_m\.config_out\[28\]
*1137 config_m\.config_out\[29\]
*1138 config_m\.config_out\[2\]
*1139 config_m\.config_out\[30\]
*1140 config_m\.config_out\[31\]
*1141 config_m\.config_out\[3\]
*1142 config_m\.config_out\[4\]
*1143 config_m\.config_out\[5\]
*1144 config_m\.config_out\[6\]
*1145 config_m\.config_out\[7\]
*1146 config_m\.config_out\[8\]
*1147 config_m\.config_out\[9\]
*1148 config_m\.data_in\[0\]
*1149 config_m\.data_in\[1\]
*1150 config_m\.data_in\[2\]
*1151 config_m\.data_in\[3\]
*1152 config_m\.data_in\[4\]
*1153 config_m\.data_in\[5\]
*1154 config_m\.data_in\[6\]
*1155 config_m\.data_in\[7\]
*1156 config_m\.data_to_write\[0\]
*1157 config_m\.data_to_write\[1\]
*1158 config_m\.data_to_write\[2\]
*1159 config_m\.data_to_write\[3\]
*1160 config_m\.write_address\[0\]
*1161 config_m\.write_address\[1\]
*1162 config_m\.write_address\[2\]
*1163 my_character_output_mode\.char_select\[0\]
*1164 my_character_output_mode\.char_select\[1\]
*1165 my_character_output_mode\.char_select\[2\]
*1166 my_character_output_mode\.char_select\[3\]
*1167 my_character_output_mode\.char_select\[4\]
*1168 my_character_output_mode\.char_select\[5\]
*1169 my_character_output_mode\.character_memory_array\.char_memory_instances\[0\]\.char_memory_instance\.data_out
*1170 my_character_output_mode\.character_memory_array\.char_memory_instances\[0\]\.char_memory_instance\.row_data\[0\]
*1171 my_character_output_mode\.character_memory_array\.char_memory_instances\[0\]\.char_memory_instance\.row_data\[1\]
*1172 my_character_output_mode\.character_memory_array\.char_memory_instances\[0\]\.char_memory_instance\.row_data\[2\]
*1173 my_character_output_mode\.character_memory_array\.char_memory_instances\[0\]\.char_memory_instance\.x\[0\]
*1174 my_character_output_mode\.character_memory_array\.char_memory_instances\[0\]\.char_memory_instance\.x\[1\]
*1175 my_character_output_mode\.character_memory_array\.char_memory_instances\[0\]\.char_memory_instance\.y\[0\]
*1176 my_character_output_mode\.character_memory_array\.char_memory_instances\[0\]\.char_memory_instance\.y\[1\]
*1177 my_character_output_mode\.character_memory_array\.char_memory_instances\[0\]\.char_memory_instance\.y\[2\]
*1178 my_character_output_mode\.character_memory_array\.char_memory_instances\[10\]\.char_memory_instance\.data_out
*1179 my_character_output_mode\.character_memory_array\.char_memory_instances\[10\]\.char_memory_instance\.row_data\[0\]
*1180 my_character_output_mode\.character_memory_array\.char_memory_instances\[10\]\.char_memory_instance\.row_data\[2\]
*1181 my_character_output_mode\.character_memory_array\.char_memory_instances\[11\]\.char_memory_instance\.data_out
*1182 my_character_output_mode\.character_memory_array\.char_memory_instances\[11\]\.char_memory_instance\.row_data\[2\]
*1183 my_character_output_mode\.character_memory_array\.char_memory_instances\[12\]\.char_memory_instance\.data_out
*1184 my_character_output_mode\.character_memory_array\.char_memory_instances\[12\]\.char_memory_instance\.row_data\[0\]
*1185 my_character_output_mode\.character_memory_array\.char_memory_instances\[12\]\.char_memory_instance\.row_data\[2\]
*1186 my_character_output_mode\.character_memory_array\.char_memory_instances\[13\]\.char_memory_instance\.data_out
*1187 my_character_output_mode\.character_memory_array\.char_memory_instances\[13\]\.char_memory_instance\.row_data\[0\]
*1188 my_character_output_mode\.character_memory_array\.char_memory_instances\[13\]\.char_memory_instance\.row_data\[2\]
*1189 my_character_output_mode\.character_memory_array\.char_memory_instances\[14\]\.char_memory_instance\.data_out
*1190 my_character_output_mode\.character_memory_array\.char_memory_instances\[14\]\.char_memory_instance\.row_data\[0\]
*1191 my_character_output_mode\.character_memory_array\.char_memory_instances\[14\]\.char_memory_instance\.row_data\[1\]
*1192 my_character_output_mode\.character_memory_array\.char_memory_instances\[16\]\.char_memory_instance\.data_out
*1193 my_character_output_mode\.character_memory_array\.char_memory_instances\[17\]\.char_memory_instance\.data_out
*1194 my_character_output_mode\.character_memory_array\.char_memory_instances\[18\]\.char_memory_instance\.data_out
*1195 my_character_output_mode\.character_memory_array\.char_memory_instances\[18\]\.char_memory_instance\.row_data\[1\]
*1196 my_character_output_mode\.character_memory_array\.char_memory_instances\[19\]\.char_memory_instance\.data_out
*1197 my_character_output_mode\.character_memory_array\.char_memory_instances\[1\]\.char_memory_instance\.data_out
*1198 my_character_output_mode\.character_memory_array\.char_memory_instances\[1\]\.char_memory_instance\.row_data\[0\]
*1199 my_character_output_mode\.character_memory_array\.char_memory_instances\[1\]\.char_memory_instance\.row_data\[1\]
*1200 my_character_output_mode\.character_memory_array\.char_memory_instances\[20\]\.char_memory_instance\.data_out
*1201 my_character_output_mode\.character_memory_array\.char_memory_instances\[20\]\.char_memory_instance\.row_data\[0\]
*1202 my_character_output_mode\.character_memory_array\.char_memory_instances\[20\]\.char_memory_instance\.row_data\[1\]
*1203 my_character_output_mode\.character_memory_array\.char_memory_instances\[20\]\.char_memory_instance\.row_data\[2\]
*1204 my_character_output_mode\.character_memory_array\.char_memory_instances\[21\]\.char_memory_instance\.data_out
*1205 my_character_output_mode\.character_memory_array\.char_memory_instances\[22\]\.char_memory_instance\.data_out
*1206 my_character_output_mode\.character_memory_array\.char_memory_instances\[22\]\.char_memory_instance\.row_data\[1\]
*1207 my_character_output_mode\.character_memory_array\.char_memory_instances\[22\]\.char_memory_instance\.row_data\[2\]
*1208 my_character_output_mode\.character_memory_array\.char_memory_instances\[23\]\.char_memory_instance\.data_out
*1209 my_character_output_mode\.character_memory_array\.char_memory_instances\[23\]\.char_memory_instance\.row_data\[1\]
*1210 my_character_output_mode\.character_memory_array\.char_memory_instances\[25\]\.char_memory_instance\.data_out
*1211 my_character_output_mode\.character_memory_array\.char_memory_instances\[25\]\.char_memory_instance\.row_data\[0\]
*1212 my_character_output_mode\.character_memory_array\.char_memory_instances\[25\]\.char_memory_instance\.row_data\[1\]
*1213 my_character_output_mode\.character_memory_array\.char_memory_instances\[26\]\.char_memory_instance\.data_out
*1214 my_character_output_mode\.character_memory_array\.char_memory_instances\[26\]\.char_memory_instance\.row_data\[0\]
*1215 my_character_output_mode\.character_memory_array\.char_memory_instances\[26\]\.char_memory_instance\.row_data\[2\]
*1216 my_character_output_mode\.character_memory_array\.char_memory_instances\[27\]\.char_memory_instance\.data_out
*1217 my_character_output_mode\.character_memory_array\.char_memory_instances\[27\]\.char_memory_instance\.row_data\[1\]
*1218 my_character_output_mode\.character_memory_array\.char_memory_instances\[28\]\.char_memory_instance\.data_out
*1219 my_character_output_mode\.character_memory_array\.char_memory_instances\[28\]\.char_memory_instance\.row_data\[0\]
*1220 my_character_output_mode\.character_memory_array\.char_memory_instances\[28\]\.char_memory_instance\.row_data\[1\]
*1221 my_character_output_mode\.character_memory_array\.char_memory_instances\[28\]\.char_memory_instance\.row_data\[2\]
*1222 my_character_output_mode\.character_memory_array\.char_memory_instances\[29\]\.char_memory_instance\.data_out
*1223 my_character_output_mode\.character_memory_array\.char_memory_instances\[2\]\.char_memory_instance\.data_out
*1224 my_character_output_mode\.character_memory_array\.char_memory_instances\[2\]\.char_memory_instance\.row_data\[2\]
*1225 my_character_output_mode\.character_memory_array\.char_memory_instances\[30\]\.char_memory_instance\.data_out
*1226 my_character_output_mode\.character_memory_array\.char_memory_instances\[30\]\.char_memory_instance\.row_data\[2\]
*1227 my_character_output_mode\.character_memory_array\.char_memory_instances\[32\]\.char_memory_instance\.data_out
*1228 my_character_output_mode\.character_memory_array\.char_memory_instances\[33\]\.char_memory_instance\.data_out
*1229 my_character_output_mode\.character_memory_array\.char_memory_instances\[33\]\.char_memory_instance\.row_data\[0\]
*1230 my_character_output_mode\.character_memory_array\.char_memory_instances\[34\]\.char_memory_instance\.data_out
*1231 my_character_output_mode\.character_memory_array\.char_memory_instances\[35\]\.char_memory_instance\.data_out
*1232 my_character_output_mode\.character_memory_array\.char_memory_instances\[35\]\.char_memory_instance\.row_data\[0\]
*1233 my_character_output_mode\.character_memory_array\.char_memory_instances\[35\]\.char_memory_instance\.row_data\[1\]
*1234 my_character_output_mode\.character_memory_array\.char_memory_instances\[3\]\.char_memory_instance\.data_out
*1235 my_character_output_mode\.character_memory_array\.char_memory_instances\[3\]\.char_memory_instance\.row_data\[0\]
*1236 my_character_output_mode\.character_memory_array\.char_memory_instances\[4\]\.char_memory_instance\.data_out
*1237 my_character_output_mode\.character_memory_array\.char_memory_instances\[4\]\.char_memory_instance\.row_data\[0\]
*1238 my_character_output_mode\.character_memory_array\.char_memory_instances\[5\]\.char_memory_instance\.data_out
*1239 my_character_output_mode\.character_memory_array\.char_memory_instances\[6\]\.char_memory_instance\.data_out
*1240 my_character_output_mode\.character_memory_array\.char_memory_instances\[7\]\.char_memory_instance\.data_out
*1241 my_character_output_mode\.character_memory_array\.char_memory_instances\[8\]\.char_memory_instance\.data_out
*1242 my_character_output_mode\.character_memory_array\.char_memory_instances\[9\]\.char_memory_instance\.data_out
*1243 my_character_output_mode\.character_row\.address\[0\]
*1244 my_character_output_mode\.character_row\.address\[1\]
*1245 my_character_output_mode\.character_row\.address\[2\]
*1246 my_character_output_mode\.character_row\.address\[3\]
*1247 my_character_output_mode\.character_row\.memory_array\[0\]\[0\]
*1248 my_character_output_mode\.character_row\.memory_array\[0\]\[1\]
*1249 my_character_output_mode\.character_row\.memory_array\[0\]\[2\]
*1250 my_character_output_mode\.character_row\.memory_array\[0\]\[3\]
*1251 my_character_output_mode\.character_row\.memory_array\[0\]\[4\]
*1252 my_character_output_mode\.character_row\.memory_array\[0\]\[5\]
*1253 my_character_output_mode\.character_row\.memory_array\[1\]\[0\]
*1254 my_character_output_mode\.character_row\.memory_array\[1\]\[1\]
*1255 my_character_output_mode\.character_row\.memory_array\[1\]\[2\]
*1256 my_character_output_mode\.character_row\.memory_array\[1\]\[3\]
*1257 my_character_output_mode\.character_row\.memory_array\[1\]\[4\]
*1258 my_character_output_mode\.character_row\.memory_array\[1\]\[5\]
*1259 my_character_output_mode\.character_row\.memory_array\[2\]\[0\]
*1260 my_character_output_mode\.character_row\.memory_array\[2\]\[1\]
*1261 my_character_output_mode\.character_row\.memory_array\[2\]\[2\]
*1262 my_character_output_mode\.character_row\.memory_array\[2\]\[3\]
*1263 my_character_output_mode\.character_row\.memory_array\[2\]\[4\]
*1264 my_character_output_mode\.character_row\.memory_array\[2\]\[5\]
*1265 my_character_output_mode\.character_row\.memory_array\[3\]\[0\]
*1266 my_character_output_mode\.character_row\.memory_array\[3\]\[1\]
*1267 my_character_output_mode\.character_row\.memory_array\[3\]\[2\]
*1268 my_character_output_mode\.character_row\.memory_array\[3\]\[3\]
*1269 my_character_output_mode\.character_row\.memory_array\[3\]\[4\]
*1270 my_character_output_mode\.character_row\.memory_array\[3\]\[5\]
*1271 my_character_output_mode\.character_row\.xcoor\[2\]
*1272 my_character_output_mode\.character_row\.xcoor\[3\]
*1273 my_character_output_mode\.character_row\.xcoor\[4\]
*1274 my_character_output_mode\.character_row\.xcoor\[5\]
*1275 my_character_output_mode\.character_row\.xcoor\[6\]
*1276 my_character_output_mode\.character_row\.xcoor\[7\]
*1277 my_character_output_mode\.character_row\.xcoor\[8\]
*1278 my_character_output_mode\.character_row\.xcoor\[9\]
*1279 my_character_output_mode\.character_row\.ycoor\[3\]
*1280 my_character_output_mode\.character_row\.ycoor\[4\]
*1281 my_character_output_mode\.character_row\.ycoor\[5\]
*1282 my_character_output_mode\.character_row\.ycoor\[6\]
*1283 my_character_output_mode\.character_row\.ycoor\[7\]
*1284 my_character_output_mode\.character_row\.ycoor\[8\]
*1285 net1
*1286 net10
*1287 net100
*1288 net101
*1289 net102
*1290 net103
*1291 net104
*1292 net105
*1293 net106
*1294 net107
*1295 net108
*1296 net109
*1297 net11
*1298 net110
*1299 net111
*1300 net112
*1301 net113
*1302 net114
*1303 net115
*1304 net116
*1305 net117
*1306 net118
*1307 net119
*1308 net12
*1309 net120
*1310 net121
*1311 net122
*1312 net123
*1313 net124
*1314 net125
*1315 net126
*1316 net127
*1317 net128
*1318 net129
*1319 net13
*1320 net130
*1321 net131
*1322 net132
*1323 net133
*1324 net134
*1325 net135
*1326 net136
*1327 net137
*1328 net138
*1329 net139
*1330 net14
*1331 net140
*1332 net141
*1333 net142
*1334 net143
*1335 net144
*1336 net145
*1337 net146
*1338 net147
*1339 net148
*1340 net149
*1341 net15
*1342 net150
*1343 net151
*1344 net152
*1345 net153
*1346 net154
*1347 net155
*1348 net156
*1349 net157
*1350 net158
*1351 net159
*1352 net16
*1353 net160
*1354 net161
*1355 net162
*1356 net163
*1357 net164
*1358 net165
*1359 net166
*1360 net167
*1361 net168
*1362 net169
*1363 net17
*1364 net170
*1365 net171
*1366 net172
*1367 net173
*1368 net174
*1369 net175
*1370 net176
*1371 net177
*1372 net178
*1373 net179
*1374 net180
*1375 net181
*1376 net182
*1377 net183
*1378 net184
*1379 net185
*1380 net186
*1381 net187
*1382 net188
*1383 net189
*1384 net190
*1385 net191
*1386 net192
*1387 net193
*1388 net194
*1389 net195
*1390 net196
*1391 net197
*1392 net198
*1393 net199
*1394 net2
*1395 net200
*1396 net201
*1397 net3
*1398 net32
*1399 net34
*1400 net35
*1401 net36
*1402 net37
*1403 net38
*1404 net39
*1405 net4
*1406 net40
*1407 net41
*1408 net42
*1409 net43
*1410 net44
*1411 net45
*1412 net46
*1413 net47
*1414 net48
*1415 net49
*1416 net5
*1417 net50
*1418 net51
*1419 net52
*1420 net53
*1421 net54
*1422 net55
*1423 net56
*1424 net57
*1425 net58
*1426 net59
*1427 net6
*1428 net60
*1429 net61
*1430 net62
*1431 net63
*1432 net64
*1433 net65
*1434 net66
*1435 net67
*1436 net68
*1437 net69
*1438 net7
*1439 net70
*1440 net71
*1441 net72
*1442 net73
*1443 net74
*1444 net75
*1445 net76
*1446 net77
*1447 net78
*1448 net79
*1449 net8
*1450 net80
*1451 net81
*1452 net82
*1453 net83
*1454 net84
*1455 net85
*1456 net86
*1457 net87
*1458 net88
*1459 net89
*1460 net9
*1461 net90
*1462 net91
*1463 net92
*1464 net93
*1465 net94
*1466 net95
*1467 net96
*1468 net97
*1469 net98
*1470 net99
*1471 peripher_module\.bit_counter\[0\]
*1472 peripher_module\.bit_counter\[1\]
*1473 peripher_module\.bit_counter\[2\]
*1474 peripher_module\.data_out\[0\]
*1475 peripher_module\.data_out\[1\]
*1476 peripher_module\.data_out\[2\]
*1477 peripher_module\.data_out\[3\]
*1478 peripher_module\.data_out\[4\]
*1479 peripher_module\.data_out\[5\]
*1480 peripher_module\.data_out\[6\]
*1481 peripher_module\.data_out\[7\]
*1482 peripher_module\.data_reg\[0\]