*SPEF "ieee 1481-1999"
*DESIGN "tt_um_devinatkin_arduino_vga"
*DATE "11:11:11 Fri 11 11, 1111"
*VENDOR "OpenRCX"
*PROGRAM "Parallel Extraction"
*VERSION "1.0"
*DESIGN_FLOW "NAME_SCOPE LOCAL" "PIN_CAP NONE"
*DIVIDER /
*DELIMITER :
*BUS_DELIMITER []
*T_UNIT 1 NS
*C_UNIT 1 PF
*R_UNIT 1 OHM
*L_UNIT 1 HENRY

*NAME_MAP
*3 clk
*4 ena
*5 rst_n
*6 ui_in[0]
*7 ui_in[1]
*8 ui_in[2]
*9 ui_in[3]
*10 ui_in[4]
*11 ui_in[5]
*12 ui_in[6]
*13 ui_in[7]
*14 uio_in[0]
*15 uio_in[1]
*16 uio_in[2]
*17 uio_in[3]
*18 uio_in[4]
*19 uio_in[5]
*20 uio_in[6]
*21 uio_in[7]
*22 net3
*23 net4
*24 net5
*25 net6
*26 net7
*27 net8
*28 net9
*29 net10
*30 net11
*31 net12
*32 net13
*33 net14
*34 net15
*35 net16
*36 net17
*37 net18
*38 uo_out[0]
*39 uo_out[1]
*40 uo_out[2]
*41 net19
*42 uo_out[4]
*43 net20
*44 uo_out[6]
*45 net21
*46 _000_
*47 _001_
*48 _002_
*49 _003_
*50 _004_
*51 _005_
*52 _006_
*53 _007_
*54 _008_
*55 _009_
*56 _010_
*57 _011_
*58 _012_
*59 _013_
*60 _014_
*61 _015_
*62 _016_
*63 _017_
*64 _018_
*65 _019_
*66 _020_
*67 _021_
*68 _022_
*69 _023_
*70 _024_
*71 _025_
*72 _026_
*73 _027_
*74 _028_
*75 _029_
*76 _030_
*77 _031_
*78 _032_
*79 _033_
*80 _034_
*81 _035_
*82 _036_
*83 _037_
*84 _038_
*85 _039_
*86 _040_
*87 _041_
*88 _042_
*89 _043_
*90 _044_
*91 _045_
*92 _046_
*93 _047_
*94 _048_
*95 _049_
*96 _050_
*97 _051_
*98 _052_
*99 _053_
*100 _054_
*101 _055_
*102 _056_
*103 _057_
*104 _058_
*105 _059_
*106 _060_
*107 _061_
*108 _062_
*109 _063_
*110 _064_
*111 _065_
*112 _066_
*113 _067_
*114 _068_
*115 _069_
*116 _070_
*117 _071_
*118 _072_
*119 _073_
*120 _074_
*121 _075_
*122 _076_
*123 _077_
*124 _078_
*125 _079_
*126 _080_
*127 _081_
*128 _082_
*129 _083_
*130 _084_
*131 _085_
*132 _086_
*133 _087_
*134 _088_
*135 _089_
*136 _090_
*137 _091_
*138 _092_
*139 _093_
*140 _094_
*141 _095_
*142 _096_
*143 _097_
*144 _098_
*145 _099_
*146 _100_
*147 _101_
*148 _102_
*149 _103_
*150 _104_
*151 _105_
*152 _106_
*153 _107_
*154 _108_
*155 _109_
*156 _110_
*157 _111_
*158 _112_
*159 _113_
*160 _114_
*161 _115_
*162 _116_
*163 _117_
*164 _118_
*165 _119_
*166 _120_
*167 _121_
*168 _122_
*169 _123_
*170 _124_
*171 _125_
*172 _126_
*173 _127_
*174 _128_
*175 _129_
*176 _130_
*177 _131_
*178 _132_
*179 _133_
*180 _134_
*181 _135_
*182 _136_
*183 _137_
*184 _138_
*185 _139_
*186 _140_
*187 _141_
*188 _142_
*189 _143_
*190 _144_
*191 _145_
*192 _146_
*193 _147_
*194 _148_
*195 _149_
*196 _150_
*197 _151_
*198 _152_
*199 _153_
*200 _154_
*201 _155_
*202 _156_
*203 _157_
*204 blue_pixel
*205 clknet_0_clk
*206 clknet_2_0__leaf_clk
*207 clknet_2_1__leaf_clk
*208 clknet_2_2__leaf_clk
*209 clknet_2_3__leaf_clk
*210 memory_array\.memory\[112\]\[0\]
*211 net1
*212 net2
*213 net22
*214 net23
*215 net24
*216 net25
*217 net26
*218 net27
*219 net28
*220 net29
*221 net30
*222 net31
*223 net32
*224 net33
*225 net34
*226 net35
*227 net36
*228 net37
*229 net38
*230 net39
*231 net40
*232 net41
*233 net42
*234 net43
*235 net44
*236 vga_timing\.h_count\[0\]
*237 vga_timing\.h_count\[1\]
*238 vga_timing\.h_count\[2\]
*239 vga_timing\.h_count\[3\]
*240 vga_timing\.h_count\[4\]
*241 vga_timing\.h_count\[5\]
*242 vga_timing\.h_count\[6\]
*243 vga_timing\.h_count\[7\]
*244 vga_timing\.h_count\[8\]
*245 vga_timing\.h_count\[9\]
*246 vga_timing\.hs
*247 vga_timing\.hs_pwm_gen\.counter\[0\]
*248 vga_timing\.hs_pwm_gen\.counter\[10\]
*249 vga_timing\.hs_pwm_gen\.counter\[1\]
*250 vga_timing\.hs_pwm_gen\.counter\[2\]
*251 vga_timing\.hs_pwm_gen\.counter\[3\]
*252 vga_timing\.hs_pwm_gen\.counter\[4\]
*253 vga_timing\.hs_pwm_gen\.counter\[5\]
*254 vga_timing\.hs_pwm_gen\.counter\[6\]
*255 vga_timing\.hs_pwm_gen\.counter\[7\]
*256 vga_timing\.hs_pwm_gen\.counter\[8\]
*257 vga_timing\.hs_pwm_gen\.counter\[9\]
*258 vga_timing\.v_count\[0\]
*259 vga_timing\.v_count\[1\]
*260 vga_timing\.v_count\[2\]
*261 vga_timing\.v_count\[3\]
*262 vga_timing\.v_count\[4\]
*263 vga_timing\.v_count\[5\]
*264 vga_timing\.v_count\[6\]
*265 vga_timing\.v_count\[7\]
*266 vga_timing\.v_count\[8\]
*267 vga_timing\.vs
*268 vga_timing\.vs_pwm
*269 vga_timing\.vs_pwm_gen\.counter\[0\]
*270 vga_timing\.vs_pwm_gen\.counter\[10\]
*271 vga_timing\.vs_pwm_gen\.counter\[1\]
*272 vga_timing\.vs_pwm_gen\.counter\[2\]
*273 vga_timing\.vs_pwm_gen\.counter\[3\]
*274 vga_timing\.vs_pwm_gen\.counter\[4\]
*275 vga_timing\.vs_pwm_gen\.counter\[5\]
*276 vga_timing\.vs_pwm_gen\.counter\[6\]
*277 vga_timing\.vs_pwm_gen\.counter\[7\]
*278 vga_timing\.vs_pwm_gen\.counter\[8\]
*279 vga_timing\.vs_pwm_gen\.counter\[9\]
*280 FILLER_0_0_109
*281 FILLER_0_0_113
*282 FILLER_0_0_125
*283 FILLER_0_0_137
*284 FILLER_0_0_141
*285 FILLER_0_0_15
*286 FILLER_0_0_153
*287 FILLER_0_0_165
*288 FILLER_0_0_169
*289 FILLER_0_0_181
*290 FILLER_0_0_193
*291 FILLER_0_0_197
*292 FILLER_0_0_209
*293 FILLER_0_0_221
*294 FILLER_0_0_225
*295 FILLER_0_0_237
*296 FILLER_0_0_249
*297 FILLER_0_0_253
*298 FILLER_0_0_265
*299 FILLER_0_0_27
*300 FILLER_0_0_277
*301 FILLER_0_0_281
*302 FILLER_0_0_29
*303 FILLER_0_0_293
*304 FILLER_0_0_3
*305 FILLER_0_0_305
*306 FILLER_0_0_309
*307 FILLER_0_0_321
*308 FILLER_0_0_333
*309 FILLER_0_0_337
*310 FILLER_0_0_349
*311 FILLER_0_0_41
*312 FILLER_0_0_53
*313 FILLER_0_0_57
*314 FILLER_0_0_69
*315 FILLER_0_0_81
*316 FILLER_0_0_85
*317 FILLER_0_0_97
*318 FILLER_0_10_109
*319 FILLER_0_10_121
*320 FILLER_0_10_133
*321 FILLER_0_10_139
*322 FILLER_0_10_141
*323 FILLER_0_10_15
*324 FILLER_0_10_153
*325 FILLER_0_10_165
*326 FILLER_0_10_177
*327 FILLER_0_10_189
*328 FILLER_0_10_195
*329 FILLER_0_10_197
*330 FILLER_0_10_209
*331 FILLER_0_10_221
*332 FILLER_0_10_233
*333 FILLER_0_10_245
*334 FILLER_0_10_251
*335 FILLER_0_10_253
*336 FILLER_0_10_265
*337 FILLER_0_10_27
*338 FILLER_0_10_277
*339 FILLER_0_10_289
*340 FILLER_0_10_29
*341 FILLER_0_10_3
*342 FILLER_0_10_301
*343 FILLER_0_10_307
*344 FILLER_0_10_309
*345 FILLER_0_10_321
*346 FILLER_0_10_333
*347 FILLER_0_10_345
*348 FILLER_0_10_41
*349 FILLER_0_10_53
*350 FILLER_0_10_65
*351 FILLER_0_10_77
*352 FILLER_0_10_83
*353 FILLER_0_10_85
*354 FILLER_0_10_97
*355 FILLER_0_11_105
*356 FILLER_0_11_111
*357 FILLER_0_11_113
*358 FILLER_0_11_125
*359 FILLER_0_11_137
*360 FILLER_0_11_149
*361 FILLER_0_11_15
*362 FILLER_0_11_161
*363 FILLER_0_11_167
*364 FILLER_0_11_169
*365 FILLER_0_11_181
*366 FILLER_0_11_193
*367 FILLER_0_11_205
*368 FILLER_0_11_217
*369 FILLER_0_11_223
*370 FILLER_0_11_225
*371 FILLER_0_11_237
*372 FILLER_0_11_249
*373 FILLER_0_11_261
*374 FILLER_0_11_27
*375 FILLER_0_11_273
*376 FILLER_0_11_279
*377 FILLER_0_11_281
*378 FILLER_0_11_293
*379 FILLER_0_11_3
*380 FILLER_0_11_305
*381 FILLER_0_11_317
*382 FILLER_0_11_329
*383 FILLER_0_11_335
*384 FILLER_0_11_337
*385 FILLER_0_11_349
*386 FILLER_0_11_39
*387 FILLER_0_11_51
*388 FILLER_0_11_55
*389 FILLER_0_11_57
*390 FILLER_0_11_69
*391 FILLER_0_11_81
*392 FILLER_0_11_93
*393 FILLER_0_12_109
*394 FILLER_0_12_121
*395 FILLER_0_12_133
*396 FILLER_0_12_139
*397 FILLER_0_12_141
*398 FILLER_0_12_15
*399 FILLER_0_12_153
*400 FILLER_0_12_165
*401 FILLER_0_12_177
*402 FILLER_0_12_189
*403 FILLER_0_12_195
*404 FILLER_0_12_197
*405 FILLER_0_12_209
*406 FILLER_0_12_221
*407 FILLER_0_12_233
*408 FILLER_0_12_245
*409 FILLER_0_12_251
*410 FILLER_0_12_253
*411 FILLER_0_12_265
*412 FILLER_0_12_27
*413 FILLER_0_12_277
*414 FILLER_0_12_289
*415 FILLER_0_12_29
*416 FILLER_0_12_3
*417 FILLER_0_12_301
*418 FILLER_0_12_307
*419 FILLER_0_12_309
*420 FILLER_0_12_321
*421 FILLER_0_12_333
*422 FILLER_0_12_345
*423 FILLER_0_12_41
*424 FILLER_0_12_53
*425 FILLER_0_12_65
*426 FILLER_0_12_77
*427 FILLER_0_12_83
*428 FILLER_0_12_85
*429 FILLER_0_12_97
*430 FILLER_0_13_105
*431 FILLER_0_13_111
*432 FILLER_0_13_113
*433 FILLER_0_13_125
*434 FILLER_0_13_137
*435 FILLER_0_13_149
*436 FILLER_0_13_15
*437 FILLER_0_13_161
*438 FILLER_0_13_167
*439 FILLER_0_13_169
*440 FILLER_0_13_181
*441 FILLER_0_13_193
*442 FILLER_0_13_205
*443 FILLER_0_13_217
*444 FILLER_0_13_223
*445 FILLER_0_13_225
*446 FILLER_0_13_237
*447 FILLER_0_13_249
*448 FILLER_0_13_261
*449 FILLER_0_13_27
*450 FILLER_0_13_273
*451 FILLER_0_13_279
*452 FILLER_0_13_281
*453 FILLER_0_13_293
*454 FILLER_0_13_3
*455 FILLER_0_13_305
*456 FILLER_0_13_317
*457 FILLER_0_13_329
*458 FILLER_0_13_335
*459 FILLER_0_13_337
*460 FILLER_0_13_349
*461 FILLER_0_13_39
*462 FILLER_0_13_51
*463 FILLER_0_13_55
*464 FILLER_0_13_57
*465 FILLER_0_13_69
*466 FILLER_0_13_81
*467 FILLER_0_13_93
*468 FILLER_0_14_109
*469 FILLER_0_14_121
*470 FILLER_0_14_133
*471 FILLER_0_14_139
*472 FILLER_0_14_141
*473 FILLER_0_14_15
*474 FILLER_0_14_153
*475 FILLER_0_14_165
*476 FILLER_0_14_177
*477 FILLER_0_14_189
*478 FILLER_0_14_195
*479 FILLER_0_14_197
*480 FILLER_0_14_209
*481 FILLER_0_14_221
*482 FILLER_0_14_233
*483 FILLER_0_14_245
*484 FILLER_0_14_251
*485 FILLER_0_14_253
*486 FILLER_0_14_265
*487 FILLER_0_14_27
*488 FILLER_0_14_277
*489 FILLER_0_14_289
*490 FILLER_0_14_29
*491 FILLER_0_14_3
*492 FILLER_0_14_301
*493 FILLER_0_14_307
*494 FILLER_0_14_309
*495 FILLER_0_14_321
*496 FILLER_0_14_333
*497 FILLER_0_14_345
*498 FILLER_0_14_41
*499 FILLER_0_14_53
*500 FILLER_0_14_65
*501 FILLER_0_14_77
*502 FILLER_0_14_83
*503 FILLER_0_14_85
*504 FILLER_0_14_97
*505 FILLER_0_15_105
*506 FILLER_0_15_111
*507 FILLER_0_15_113
*508 FILLER_0_15_125
*509 FILLER_0_15_137
*510 FILLER_0_15_149
*511 FILLER_0_15_15
*512 FILLER_0_15_161
*513 FILLER_0_15_167
*514 FILLER_0_15_169
*515 FILLER_0_15_181
*516 FILLER_0_15_193
*517 FILLER_0_15_205
*518 FILLER_0_15_217
*519 FILLER_0_15_223
*520 FILLER_0_15_225
*521 FILLER_0_15_237
*522 FILLER_0_15_249
*523 FILLER_0_15_261
*524 FILLER_0_15_27
*525 FILLER_0_15_273
*526 FILLER_0_15_279
*527 FILLER_0_15_281
*528 FILLER_0_15_293
*529 FILLER_0_15_3
*530 FILLER_0_15_305
*531 FILLER_0_15_317
*532 FILLER_0_15_329
*533 FILLER_0_15_335
*534 FILLER_0_15_337
*535 FILLER_0_15_349
*536 FILLER_0_15_39
*537 FILLER_0_15_51
*538 FILLER_0_15_55
*539 FILLER_0_15_57
*540 FILLER_0_15_69
*541 FILLER_0_15_81
*542 FILLER_0_15_93
*543 FILLER_0_16_109
*544 FILLER_0_16_121
*545 FILLER_0_16_133
*546 FILLER_0_16_139
*547 FILLER_0_16_141
*548 FILLER_0_16_15
*549 FILLER_0_16_153
*550 FILLER_0_16_165
*551 FILLER_0_16_177
*552 FILLER_0_16_189
*553 FILLER_0_16_195
*554 FILLER_0_16_197
*555 FILLER_0_16_209
*556 FILLER_0_16_221
*557 FILLER_0_16_233
*558 FILLER_0_16_245
*559 FILLER_0_16_251
*560 FILLER_0_16_253
*561 FILLER_0_16_265
*562 FILLER_0_16_27
*563 FILLER_0_16_277
*564 FILLER_0_16_289
*565 FILLER_0_16_29
*566 FILLER_0_16_3
*567 FILLER_0_16_301
*568 FILLER_0_16_307
*569 FILLER_0_16_309
*570 FILLER_0_16_321
*571 FILLER_0_16_333
*572 FILLER_0_16_345
*573 FILLER_0_16_41
*574 FILLER_0_16_53
*575 FILLER_0_16_65
*576 FILLER_0_16_77
*577 FILLER_0_16_83
*578 FILLER_0_16_85
*579 FILLER_0_16_97
*580 FILLER_0_17_105
*581 FILLER_0_17_111
*582 FILLER_0_17_113
*583 FILLER_0_17_125
*584 FILLER_0_17_137
*585 FILLER_0_17_149
*586 FILLER_0_17_15
*587 FILLER_0_17_161
*588 FILLER_0_17_167
*589 FILLER_0_17_169
*590 FILLER_0_17_181
*591 FILLER_0_17_193
*592 FILLER_0_17_205
*593 FILLER_0_17_217
*594 FILLER_0_17_223
*595 FILLER_0_17_225
*596 FILLER_0_17_237
*597 FILLER_0_17_249
*598 FILLER_0_17_261
*599 FILLER_0_17_27
*600 FILLER_0_17_273
*601 FILLER_0_17_279
*602 FILLER_0_17_281
*603 FILLER_0_17_293
*604 FILLER_0_17_3
*605 FILLER_0_17_305
*606 FILLER_0_17_317
*607 FILLER_0_17_329
*608 FILLER_0_17_335
*609 FILLER_0_17_337
*610 FILLER_0_17_349
*611 FILLER_0_17_39
*612 FILLER_0_17_51
*613 FILLER_0_17_55
*614 FILLER_0_17_57
*615 FILLER_0_17_69
*616 FILLER_0_17_81
*617 FILLER_0_17_93
*618 FILLER_0_18_109
*619 FILLER_0_18_121
*620 FILLER_0_18_133
*621 FILLER_0_18_139
*622 FILLER_0_18_141
*623 FILLER_0_18_15
*624 FILLER_0_18_153
*625 FILLER_0_18_165
*626 FILLER_0_18_177
*627 FILLER_0_18_189
*628 FILLER_0_18_195
*629 FILLER_0_18_197
*630 FILLER_0_18_209
*631 FILLER_0_18_221
*632 FILLER_0_18_233
*633 FILLER_0_18_245
*634 FILLER_0_18_251
*635 FILLER_0_18_253
*636 FILLER_0_18_265
*637 FILLER_0_18_27
*638 FILLER_0_18_277
*639 FILLER_0_18_289
*640 FILLER_0_18_29
*641 FILLER_0_18_3
*642 FILLER_0_18_301
*643 FILLER_0_18_307
*644 FILLER_0_18_309
*645 FILLER_0_18_321
*646 FILLER_0_18_333
*647 FILLER_0_18_345
*648 FILLER_0_18_41
*649 FILLER_0_18_53
*650 FILLER_0_18_65
*651 FILLER_0_18_77
*652 FILLER_0_18_83
*653 FILLER_0_18_85
*654 FILLER_0_18_97
*655 FILLER_0_19_105
*656 FILLER_0_19_111
*657 FILLER_0_19_113
*658 FILLER_0_19_125
*659 FILLER_0_19_137
*660 FILLER_0_19_149
*661 FILLER_0_19_15
*662 FILLER_0_19_161
*663 FILLER_0_19_167
*664 FILLER_0_19_169
*665 FILLER_0_19_181
*666 FILLER_0_19_193
*667 FILLER_0_19_205
*668 FILLER_0_19_217
*669 FILLER_0_19_223
*670 FILLER_0_19_225
*671 FILLER_0_19_237
*672 FILLER_0_19_249
*673 FILLER_0_19_261
*674 FILLER_0_19_27
*675 FILLER_0_19_273
*676 FILLER_0_19_279
*677 FILLER_0_19_281
*678 FILLER_0_19_293
*679 FILLER_0_19_3
*680 FILLER_0_19_305
*681 FILLER_0_19_317
*682 FILLER_0_19_329
*683 FILLER_0_19_335
*684 FILLER_0_19_337
*685 FILLER_0_19_349
*686 FILLER_0_19_39
*687 FILLER_0_19_51
*688 FILLER_0_19_55
*689 FILLER_0_19_57
*690 FILLER_0_19_69
*691 FILLER_0_19_81
*692 FILLER_0_19_93
*693 FILLER_0_1_105
*694 FILLER_0_1_111
*695 FILLER_0_1_113
*696 FILLER_0_1_125
*697 FILLER_0_1_137
*698 FILLER_0_1_149
*699 FILLER_0_1_15
*700 FILLER_0_1_161
*701 FILLER_0_1_167
*702 FILLER_0_1_169
*703 FILLER_0_1_181
*704 FILLER_0_1_193
*705 FILLER_0_1_205
*706 FILLER_0_1_217
*707 FILLER_0_1_223
*708 FILLER_0_1_225
*709 FILLER_0_1_237
*710 FILLER_0_1_249
*711 FILLER_0_1_261
*712 FILLER_0_1_27
*713 FILLER_0_1_273
*714 FILLER_0_1_279
*715 FILLER_0_1_281
*716 FILLER_0_1_293
*717 FILLER_0_1_3
*718 FILLER_0_1_305
*719 FILLER_0_1_317
*720 FILLER_0_1_329
*721 FILLER_0_1_335
*722 FILLER_0_1_337
*723 FILLER_0_1_349
*724 FILLER_0_1_39
*725 FILLER_0_1_51
*726 FILLER_0_1_55
*727 FILLER_0_1_57
*728 FILLER_0_1_69
*729 FILLER_0_1_81
*730 FILLER_0_1_93
*731 FILLER_0_20_109
*732 FILLER_0_20_121
*733 FILLER_0_20_133
*734 FILLER_0_20_139
*735 FILLER_0_20_141
*736 FILLER_0_20_15
*737 FILLER_0_20_153
*738 FILLER_0_20_165
*739 FILLER_0_20_177
*740 FILLER_0_20_189
*741 FILLER_0_20_195
*742 FILLER_0_20_197
*743 FILLER_0_20_209
*744 FILLER_0_20_221
*745 FILLER_0_20_233
*746 FILLER_0_20_245
*747 FILLER_0_20_251
*748 FILLER_0_20_253
*749 FILLER_0_20_265
*750 FILLER_0_20_27
*751 FILLER_0_20_277
*752 FILLER_0_20_289
*753 FILLER_0_20_29
*754 FILLER_0_20_3
*755 FILLER_0_20_301
*756 FILLER_0_20_307
*757 FILLER_0_20_309
*758 FILLER_0_20_321
*759 FILLER_0_20_333
*760 FILLER_0_20_345
*761 FILLER_0_20_41
*762 FILLER_0_20_53
*763 FILLER_0_20_65
*764 FILLER_0_20_77
*765 FILLER_0_20_83
*766 FILLER_0_20_85
*767 FILLER_0_20_97
*768 FILLER_0_21_105
*769 FILLER_0_21_111
*770 FILLER_0_21_113
*771 FILLER_0_21_125
*772 FILLER_0_21_137
*773 FILLER_0_21_149
*774 FILLER_0_21_15
*775 FILLER_0_21_161
*776 FILLER_0_21_167
*777 FILLER_0_21_169
*778 FILLER_0_21_181
*779 FILLER_0_21_193
*780 FILLER_0_21_205
*781 FILLER_0_21_217
*782 FILLER_0_21_223
*783 FILLER_0_21_225
*784 FILLER_0_21_237
*785 FILLER_0_21_249
*786 FILLER_0_21_261
*787 FILLER_0_21_27
*788 FILLER_0_21_273
*789 FILLER_0_21_279
*790 FILLER_0_21_281
*791 FILLER_0_21_293
*792 FILLER_0_21_3
*793 FILLER_0_21_305
*794 FILLER_0_21_317
*795 FILLER_0_21_329
*796 FILLER_0_21_335
*797 FILLER_0_21_337
*798 FILLER_0_21_349
*799 FILLER_0_21_39
*800 FILLER_0_21_51
*801 FILLER_0_21_55
*802 FILLER_0_21_57
*803 FILLER_0_21_69
*804 FILLER_0_21_81
*805 FILLER_0_21_93
*806 FILLER_0_22_109
*807 FILLER_0_22_121
*808 FILLER_0_22_133
*809 FILLER_0_22_139
*810 FILLER_0_22_141
*811 FILLER_0_22_15
*812 FILLER_0_22_153
*813 FILLER_0_22_165
*814 FILLER_0_22_177
*815 FILLER_0_22_189
*816 FILLER_0_22_195
*817 FILLER_0_22_197
*818 FILLER_0_22_209
*819 FILLER_0_22_221
*820 FILLER_0_22_233
*821 FILLER_0_22_245
*822 FILLER_0_22_251
*823 FILLER_0_22_253
*824 FILLER_0_22_265
*825 FILLER_0_22_27
*826 FILLER_0_22_277
*827 FILLER_0_22_289
*828 FILLER_0_22_29
*829 FILLER_0_22_3
*830 FILLER_0_22_301
*831 FILLER_0_22_307
*832 FILLER_0_22_309
*833 FILLER_0_22_321
*834 FILLER_0_22_333
*835 FILLER_0_22_345
*836 FILLER_0_22_41
*837 FILLER_0_22_53
*838 FILLER_0_22_65
*839 FILLER_0_22_77
*840 FILLER_0_22_83
*841 FILLER_0_22_85
*842 FILLER_0_22_97
*843 FILLER_0_23_105
*844 FILLER_0_23_111
*845 FILLER_0_23_113
*846 FILLER_0_23_125
*847 FILLER_0_23_137
*848 FILLER_0_23_149
*849 FILLER_0_23_15
*850 FILLER_0_23_161
*851 FILLER_0_23_167
*852 FILLER_0_23_169
*853 FILLER_0_23_181
*854 FILLER_0_23_193
*855 FILLER_0_23_205
*856 FILLER_0_23_217
*857 FILLER_0_23_223
*858 FILLER_0_23_225
*859 FILLER_0_23_237
*860 FILLER_0_23_249
*861 FILLER_0_23_261
*862 FILLER_0_23_27
*863 FILLER_0_23_273
*864 FILLER_0_23_279
*865 FILLER_0_23_281
*866 FILLER_0_23_293
*867 FILLER_0_23_3
*868 FILLER_0_23_305
*869 FILLER_0_23_317
*870 FILLER_0_23_329
*871 FILLER_0_23_335
*872 FILLER_0_23_337
*873 FILLER_0_23_349
*874 FILLER_0_23_39
*875 FILLER_0_23_51
*876 FILLER_0_23_55
*877 FILLER_0_23_57
*878 FILLER_0_23_69
*879 FILLER_0_23_81
*880 FILLER_0_23_93
*881 FILLER_0_24_109
*882 FILLER_0_24_121
*883 FILLER_0_24_133
*884 FILLER_0_24_139
*885 FILLER_0_24_141
*886 FILLER_0_24_15
*887 FILLER_0_24_153
*888 FILLER_0_24_165
*889 FILLER_0_24_177
*890 FILLER_0_24_189
*891 FILLER_0_24_195
*892 FILLER_0_24_197
*893 FILLER_0_24_209
*894 FILLER_0_24_221
*895 FILLER_0_24_233
*896 FILLER_0_24_245
*897 FILLER_0_24_251
*898 FILLER_0_24_253
*899 FILLER_0_24_265
*900 FILLER_0_24_27
*901 FILLER_0_24_277
*902 FILLER_0_24_289
*903 FILLER_0_24_29
*904 FILLER_0_24_3
*905 FILLER_0_24_301
*906 FILLER_0_24_307
*907 FILLER_0_24_309
*908 FILLER_0_24_321
*909 FILLER_0_24_333
*910 FILLER_0_24_345
*911 FILLER_0_24_41
*912 FILLER_0_24_53
*913 FILLER_0_24_65
*914 FILLER_0_24_77
*915 FILLER_0_24_83
*916 FILLER_0_24_85
*917 FILLER_0_24_97
*918 FILLER_0_25_105
*919 FILLER_0_25_111
*920 FILLER_0_25_113
*921 FILLER_0_25_125
*922 FILLER_0_25_137
*923 FILLER_0_25_149
*924 FILLER_0_25_15
*925 FILLER_0_25_161
*926 FILLER_0_25_167
*927 FILLER_0_25_169
*928 FILLER_0_25_181
*929 FILLER_0_25_193
*930 FILLER_0_25_205
*931 FILLER_0_25_217
*932 FILLER_0_25_223
*933 FILLER_0_25_225
*934 FILLER_0_25_237
*935 FILLER_0_25_249
*936 FILLER_0_25_261
*937 FILLER_0_25_27
*938 FILLER_0_25_273
*939 FILLER_0_25_279
*940 FILLER_0_25_281
*941 FILLER_0_25_293
*942 FILLER_0_25_3
*943 FILLER_0_25_305
*944 FILLER_0_25_317
*945 FILLER_0_25_329
*946 FILLER_0_25_335
*947 FILLER_0_25_337
*948 FILLER_0_25_349
*949 FILLER_0_25_39
*950 FILLER_0_25_51
*951 FILLER_0_25_55
*952 FILLER_0_25_57
*953 FILLER_0_25_69
*954 FILLER_0_25_81
*955 FILLER_0_25_93
*956 FILLER_0_26_109
*957 FILLER_0_26_121
*958 FILLER_0_26_133
*959 FILLER_0_26_139
*960 FILLER_0_26_141
*961 FILLER_0_26_15
*962 FILLER_0_26_153
*963 FILLER_0_26_165
*964 FILLER_0_26_177
*965 FILLER_0_26_189
*966 FILLER_0_26_195
*967 FILLER_0_26_197
*968 FILLER_0_26_209
*969 FILLER_0_26_221
*970 FILLER_0_26_233
*971 FILLER_0_26_245
*972 FILLER_0_26_251
*973 FILLER_0_26_253
*974 FILLER_0_26_265
*975 FILLER_0_26_27
*976 FILLER_0_26_277
*977 FILLER_0_26_289
*978 FILLER_0_26_29
*979 FILLER_0_26_3
*980 FILLER_0_26_301
*981 FILLER_0_26_307
*982 FILLER_0_26_309
*983 FILLER_0_26_321
*984 FILLER_0_26_333
*985 FILLER_0_26_345
*986 FILLER_0_26_41
*987 FILLER_0_26_53
*988 FILLER_0_26_65
*989 FILLER_0_26_77
*990 FILLER_0_26_83
*991 FILLER_0_26_85
*992 FILLER_0_26_97
*993 FILLER_0_27_105
*994 FILLER_0_27_111
*995 FILLER_0_27_113
*996 FILLER_0_27_125
*997 FILLER_0_27_137
*998 FILLER_0_27_149
*999 FILLER_0_27_15
*1000 FILLER_0_27_161
*1001 FILLER_0_27_167
*1002 FILLER_0_27_169
*1003 FILLER_0_27_181
*1004 FILLER_0_27_193
*1005 FILLER_0_27_205
*1006 FILLER_0_27_217
*1007 FILLER_0_27_223
*1008 FILLER_0_27_225
*1009 FILLER_0_27_237
*1010 FILLER_0_27_249
*1011 FILLER_0_27_261
*1012 FILLER_0_27_27
*1013 FILLER_0_27_273
*1014 FILLER_0_27_279
*1015 FILLER_0_27_281
*1016 FILLER_0_27_293
*1017 FILLER_0_27_3
*1018 FILLER_0_27_305
*1019 FILLER_0_27_317
*1020 FILLER_0_27_329
*1021 FILLER_0_27_335
*1022 FILLER_0_27_337
*1023 FILLER_0_27_349
*1024 FILLER_0_27_39
*1025 FILLER_0_27_51
*1026 FILLER_0_27_55
*1027 FILLER_0_27_57
*1028 FILLER_0_27_69
*1029 FILLER_0_27_81
*1030 FILLER_0_27_93
*1031 FILLER_0_28_109
*1032 FILLER_0_28_121
*1033 FILLER_0_28_133
*1034 FILLER_0_28_139
*1035 FILLER_0_28_141
*1036 FILLER_0_28_15
*1037 FILLER_0_28_153
*1038 FILLER_0_28_165
*1039 FILLER_0_28_177
*1040 FILLER_0_28_189
*1041 FILLER_0_28_195
*1042 FILLER_0_28_197
*1043 FILLER_0_28_209
*1044 FILLER_0_28_221
*1045 FILLER_0_28_233
*1046 FILLER_0_28_245
*1047 FILLER_0_28_251
*1048 FILLER_0_28_253
*1049 FILLER_0_28_265
*1050 FILLER_0_28_27
*1051 FILLER_0_28_277
*1052 FILLER_0_28_289
*1053 FILLER_0_28_29
*1054 FILLER_0_28_3
*1055 FILLER_0_28_301
*1056 FILLER_0_28_307
*1057 FILLER_0_28_309
*1058 FILLER_0_28_321
*1059 FILLER_0_28_333
*1060 FILLER_0_28_345
*1061 FILLER_0_28_41
*1062 FILLER_0_28_53
*1063 FILLER_0_28_65
*1064 FILLER_0_28_77
*1065 FILLER_0_28_83
*1066 FILLER_0_28_85
*1067 FILLER_0_28_97
*1068 FILLER_0_29_105
*1069 FILLER_0_29_111
*1070 FILLER_0_29_113
*1071 FILLER_0_29_125
*1072 FILLER_0_29_137
*1073 FILLER_0_29_149
*1074 FILLER_0_29_15
*1075 FILLER_0_29_161
*1076 FILLER_0_29_167
*1077 FILLER_0_29_169
*1078 FILLER_0_29_181
*1079 FILLER_0_29_193
*1080 FILLER_0_29_205
*1081 FILLER_0_29_217
*1082 FILLER_0_29_223
*1083 FILLER_0_29_225
*1084 FILLER_0_29_237
*1085 FILLER_0_29_249
*1086 FILLER_0_29_261
*1087 FILLER_0_29_27
*1088 FILLER_0_29_273
*1089 FILLER_0_29_279
*1090 FILLER_0_29_281
*1091 FILLER_0_29_293
*1092 FILLER_0_29_3
*1093 FILLER_0_29_305
*1094 FILLER_0_29_317
*1095 FILLER_0_29_329
*1096 FILLER_0_29_335
*1097 FILLER_0_29_337
*1098 FILLER_0_29_349
*1099 FILLER_0_29_39
*1100 FILLER_0_29_51
*1101 FILLER_0_29_55
*1102 FILLER_0_29_57
*1103 FILLER_0_29_69
*1104 FILLER_0_29_81
*1105 FILLER_0_29_93
*1106 FILLER_0_2_109
*1107 FILLER_0_2_121
*1108 FILLER_0_2_133
*1109 FILLER_0_2_139
*1110 FILLER_0_2_141
*1111 FILLER_0_2_15
*1112 FILLER_0_2_153
*1113 FILLER_0_2_165
*1114 FILLER_0_2_177
*1115 FILLER_0_2_189
*1116 FILLER_0_2_195
*1117 FILLER_0_2_197
*1118 FILLER_0_2_209
*1119 FILLER_0_2_221
*1120 FILLER_0_2_233
*1121 FILLER_0_2_245
*1122 FILLER_0_2_251
*1123 FILLER_0_2_253
*1124 FILLER_0_2_265
*1125 FILLER_0_2_27
*1126 FILLER_0_2_277
*1127 FILLER_0_2_289
*1128 FILLER_0_2_29
*1129 FILLER_0_2_3
*1130 FILLER_0_2_301
*1131 FILLER_0_2_307
*1132 FILLER_0_2_309
*1133 FILLER_0_2_321
*1134 FILLER_0_2_333
*1135 FILLER_0_2_345
*1136 FILLER_0_2_41
*1137 FILLER_0_2_53
*1138 FILLER_0_2_65
*1139 FILLER_0_2_77
*1140 FILLER_0_2_83
*1141 FILLER_0_2_85
*1142 FILLER_0_2_97
*1143 FILLER_0_30_109
*1144 FILLER_0_30_121
*1145 FILLER_0_30_133
*1146 FILLER_0_30_139
*1147 FILLER_0_30_141
*1148 FILLER_0_30_15
*1149 FILLER_0_30_153
*1150 FILLER_0_30_165
*1151 FILLER_0_30_177
*1152 FILLER_0_30_189
*1153 FILLER_0_30_195
*1154 FILLER_0_30_197
*1155 FILLER_0_30_209
*1156 FILLER_0_30_221
*1157 FILLER_0_30_233
*1158 FILLER_0_30_245
*1159 FILLER_0_30_251
*1160 FILLER_0_30_253
*1161 FILLER_0_30_265
*1162 FILLER_0_30_27
*1163 FILLER_0_30_277
*1164 FILLER_0_30_289
*1165 FILLER_0_30_29
*1166 FILLER_0_30_3
*1167 FILLER_0_30_301
*1168 FILLER_0_30_307
*1169 FILLER_0_30_309
*1170 FILLER_0_30_321
*1171 FILLER_0_30_333
*1172 FILLER_0_30_345
*1173 FILLER_0_30_41
*1174 FILLER_0_30_53
*1175 FILLER_0_30_65
*1176 FILLER_0_30_77
*1177 FILLER_0_30_83
*1178 FILLER_0_30_85
*1179 FILLER_0_30_97
*1180 FILLER_0_31_105
*1181 FILLER_0_31_111
*1182 FILLER_0_31_113
*1183 FILLER_0_31_125
*1184 FILLER_0_31_137
*1185 FILLER_0_31_149
*1186 FILLER_0_31_15
*1187 FILLER_0_31_161
*1188 FILLER_0_31_167
*1189 FILLER_0_31_169
*1190 FILLER_0_31_181
*1191 FILLER_0_31_193
*1192 FILLER_0_31_205
*1193 FILLER_0_31_217
*1194 FILLER_0_31_223
*1195 FILLER_0_31_225
*1196 FILLER_0_31_237
*1197 FILLER_0_31_249
*1198 FILLER_0_31_261
*1199 FILLER_0_31_27
*1200 FILLER_0_31_273
*1201 FILLER_0_31_279
*1202 FILLER_0_31_281
*1203 FILLER_0_31_293
*1204 FILLER_0_31_3
*1205 FILLER_0_31_305
*1206 FILLER_0_31_317
*1207 FILLER_0_31_329
*1208 FILLER_0_31_335
*1209 FILLER_0_31_337
*1210 FILLER_0_31_349
*1211 FILLER_0_31_39
*1212 FILLER_0_31_51
*1213 FILLER_0_31_55
*1214 FILLER_0_31_57
*1215 FILLER_0_31_69
*1216 FILLER_0_31_81
*1217 FILLER_0_31_93
*1218 FILLER_0_32_109
*1219 FILLER_0_32_121
*1220 FILLER_0_32_133
*1221 FILLER_0_32_139
*1222 FILLER_0_32_141
*1223 FILLER_0_32_15
*1224 FILLER_0_32_153
*1225 FILLER_0_32_165
*1226 FILLER_0_32_177
*1227 FILLER_0_32_189
*1228 FILLER_0_32_195
*1229 FILLER_0_32_197
*1230 FILLER_0_32_209
*1231 FILLER_0_32_221
*1232 FILLER_0_32_233
*1233 FILLER_0_32_245
*1234 FILLER_0_32_251
*1235 FILLER_0_32_253
*1236 FILLER_0_32_265
*1237 FILLER_0_32_27
*1238 FILLER_0_32_277
*1239 FILLER_0_32_289
*1240 FILLER_0_32_29
*1241 FILLER_0_32_3
*1242 FILLER_0_32_301
*1243 FILLER_0_32_307
*1244 FILLER_0_32_309
*1245 FILLER_0_32_321
*1246 FILLER_0_32_333
*1247 FILLER_0_32_345
*1248 FILLER_0_32_41
*1249 FILLER_0_32_53
*1250 FILLER_0_32_65
*1251 FILLER_0_32_77
*1252 FILLER_0_32_83
*1253 FILLER_0_32_85
*1254 FILLER_0_32_97
*1255 FILLER_0_33_105
*1256 FILLER_0_33_111
*1257 FILLER_0_33_113
*1258 FILLER_0_33_125
*1259 FILLER_0_33_137
*1260 FILLER_0_33_149
*1261 FILLER_0_33_15
*1262 FILLER_0_33_161
*1263 FILLER_0_33_167
*1264 FILLER_0_33_169
*1265 FILLER_0_33_181
*1266 FILLER_0_33_193
*1267 FILLER_0_33_205
*1268 FILLER_0_33_217
*1269 FILLER_0_33_223
*1270 FILLER_0_33_225
*1271 FILLER_0_33_237
*1272 FILLER_0_33_249
*1273 FILLER_0_33_261
*1274 FILLER_0_33_27
*1275 FILLER_0_33_273
*1276 FILLER_0_33_279
*1277 FILLER_0_33_281
*1278 FILLER_0_33_293
*1279 FILLER_0_33_3
*1280 FILLER_0_33_305
*1281 FILLER_0_33_317
*1282 FILLER_0_33_329
*1283 FILLER_0_33_335
*1284 FILLER_0_33_337
*1285 FILLER_0_33_349
*1286 FILLER_0_33_39
*1287 FILLER_0_33_51
*1288 FILLER_0_33_55
*1289 FILLER_0_33_57
*1290 FILLER_0_33_69
*1291 FILLER_0_33_81
*1292 FILLER_0_33_93
*1293 FILLER_0_34_109
*1294 FILLER_0_34_121
*1295 FILLER_0_34_133
*1296 FILLER_0_34_139
*1297 FILLER_0_34_141
*1298 FILLER_0_34_15
*1299 FILLER_0_34_153
*1300 FILLER_0_34_165
*1301 FILLER_0_34_177
*1302 FILLER_0_34_189
*1303 FILLER_0_34_195
*1304 FILLER_0_34_197
*1305 FILLER_0_34_209
*1306 FILLER_0_34_221
*1307 FILLER_0_34_233
*1308 FILLER_0_34_245
*1309 FILLER_0_34_251
*1310 FILLER_0_34_253
*1311 FILLER_0_34_265
*1312 FILLER_0_34_27
*1313 FILLER_0_34_277
*1314 FILLER_0_34_289
*1315 FILLER_0_34_29
*1316 FILLER_0_34_3
*1317 FILLER_0_34_301
*1318 FILLER_0_34_307
*1319 FILLER_0_34_309
*1320 FILLER_0_34_321
*1321 FILLER_0_34_333
*1322 FILLER_0_34_345
*1323 FILLER_0_34_41
*1324 FILLER_0_34_53
*1325 FILLER_0_34_65
*1326 FILLER_0_34_77
*1327 FILLER_0_34_83
*1328 FILLER_0_34_85
*1329 FILLER_0_34_97
*1330 FILLER_0_35_105
*1331 FILLER_0_35_111
*1332 FILLER_0_35_113
*1333 FILLER_0_35_125
*1334 FILLER_0_35_137
*1335 FILLER_0_35_149
*1336 FILLER_0_35_15
*1337 FILLER_0_35_161
*1338 FILLER_0_35_167
*1339 FILLER_0_35_169
*1340 FILLER_0_35_181
*1341 FILLER_0_35_193
*1342 FILLER_0_35_205
*1343 FILLER_0_35_217
*1344 FILLER_0_35_223
*1345 FILLER_0_35_225
*1346 FILLER_0_35_237
*1347 FILLER_0_35_249
*1348 FILLER_0_35_261
*1349 FILLER_0_35_27
*1350 FILLER_0_35_273
*1351 FILLER_0_35_279
*1352 FILLER_0_35_281
*1353 FILLER_0_35_293
*1354 FILLER_0_35_3
*1355 FILLER_0_35_305
*1356 FILLER_0_35_317
*1357 FILLER_0_35_329
*1358 FILLER_0_35_335
*1359 FILLER_0_35_337
*1360 FILLER_0_35_349
*1361 FILLER_0_35_39
*1362 FILLER_0_35_51
*1363 FILLER_0_35_55
*1364 FILLER_0_35_57
*1365 FILLER_0_35_69
*1366 FILLER_0_35_81
*1367 FILLER_0_35_93
*1368 FILLER_0_36_109
*1369 FILLER_0_36_121
*1370 FILLER_0_36_133
*1371 FILLER_0_36_139
*1372 FILLER_0_36_141
*1373 FILLER_0_36_15
*1374 FILLER_0_36_153
*1375 FILLER_0_36_165
*1376 FILLER_0_36_177
*1377 FILLER_0_36_189
*1378 FILLER_0_36_195
*1379 FILLER_0_36_197
*1380 FILLER_0_36_209
*1381 FILLER_0_36_221
*1382 FILLER_0_36_233
*1383 FILLER_0_36_245
*1384 FILLER_0_36_251
*1385 FILLER_0_36_253
*1386 FILLER_0_36_265
*1387 FILLER_0_36_27
*1388 FILLER_0_36_277
*1389 FILLER_0_36_289
*1390 FILLER_0_36_29
*1391 FILLER_0_36_3
*1392 FILLER_0_36_301
*1393 FILLER_0_36_307
*1394 FILLER_0_36_309
*1395 FILLER_0_36_321
*1396 FILLER_0_36_333
*1397 FILLER_0_36_345
*1398 FILLER_0_36_41
*1399 FILLER_0_36_53
*1400 FILLER_0_36_65
*1401 FILLER_0_36_77
*1402 FILLER_0_36_83
*1403 FILLER_0_36_85
*1404 FILLER_0_36_97
*1405 FILLER_0_37_105
*1406 FILLER_0_37_111
*1407 FILLER_0_37_113
*1408 FILLER_0_37_125
*1409 FILLER_0_37_137
*1410 FILLER_0_37_149
*1411 FILLER_0_37_15
*1412 FILLER_0_37_161
*1413 FILLER_0_37_167
*1414 FILLER_0_37_169
*1415 FILLER_0_37_181
*1416 FILLER_0_37_193
*1417 FILLER_0_37_205
*1418 FILLER_0_37_217
*1419 FILLER_0_37_223
*1420 FILLER_0_37_225
*1421 FILLER_0_37_237
*1422 FILLER_0_37_249
*1423 FILLER_0_37_261
*1424 FILLER_0_37_27
*1425 FILLER_0_37_273
*1426 FILLER_0_37_279
*1427 FILLER_0_37_281
*1428 FILLER_0_37_293
*1429 FILLER_0_37_3
*1430 FILLER_0_37_305
*1431 FILLER_0_37_317
*1432 FILLER_0_37_329
*1433 FILLER_0_37_335
*1434 FILLER_0_37_337
*1435 FILLER_0_37_349
*1436 FILLER_0_37_39
*1437 FILLER_0_37_51
*1438 FILLER_0_37_55
*1439 FILLER_0_37_57
*1440 FILLER_0_37_69
*1441 FILLER_0_37_81
*1442 FILLER_0_37_93
*1443 FILLER_0_38_109
*1444 FILLER_0_38_121
*1445 FILLER_0_38_133
*1446 FILLER_0_38_139
*1447 FILLER_0_38_141
*1448 FILLER_0_38_15
*1449 FILLER_0_38_153
*1450 FILLER_0_38_165
*1451 FILLER_0_38_177
*1452 FILLER_0_38_189
*1453 FILLER_0_38_195
*1454 FILLER_0_38_197
*1455 FILLER_0_38_209
*1456 FILLER_0_38_221
*1457 FILLER_0_38_233
*1458 FILLER_0_38_245
*1459 FILLER_0_38_251
*1460 FILLER_0_38_253
*1461 FILLER_0_38_265
*1462 FILLER_0_38_27
*1463 FILLER_0_38_277
*1464 FILLER_0_38_289
*1465 FILLER_0_38_29
*1466 FILLER_0_38_3
*1467 FILLER_0_38_301
*1468 FILLER_0_38_307
*1469 FILLER_0_38_309
*1470 FILLER_0_38_321
*1471 FILLER_0_38_333
*1472 FILLER_0_38_345
*1473 FILLER_0_38_41
*1474 FILLER_0_38_53
*1475 FILLER_0_38_65
*1476 FILLER_0_38_77
*1477 FILLER_0_38_83
*1478 FILLER_0_38_85
*1479 FILLER_0_38_97
*1480 FILLER_0_39_105
*1481 FILLER_0_39_111
*1482 FILLER_0_39_113
*1483 FILLER_0_39_125
*1484 FILLER_0_39_137
*1485 FILLER_0_39_149
*1486 FILLER_0_39_15
*1487 FILLER_0_39_161
*1488 FILLER_0_39_167
*1489 FILLER_0_39_169
*1490 FILLER_0_39_181
*1491 FILLER_0_39_193
*1492 FILLER_0_39_205