*SPEF "ieee 1481-1999"
*DESIGN "tt_um_devinatkin_arduino_vga"
*DATE "11:11:11 Fri 11 11, 1111"
*VENDOR "OpenRCX"
*PROGRAM "Parallel Extraction"
*VERSION "1.0"
*DESIGN_FLOW "NAME_SCOPE LOCAL" "PIN_CAP NONE"
*DIVIDER /
*DELIMITER :
*BUS_DELIMITER []
*T_UNIT 1 NS
*C_UNIT 1 PF
*R_UNIT 1 OHM
*L_UNIT 1 HENRY

*NAME_MAP
*3 clk
*4 ena
*5 rst_n
*6 ui_in[0]
*7 ui_in[1]
*8 ui_in[2]
*9 ui_in[3]
*10 ui_in[4]
*11 ui_in[5]
*12 ui_in[6]
*13 ui_in[7]
*14 uio_in[0]
*15 uio_in[1]
*16 uio_in[2]
*17 uio_in[3]
*18 uio_in[4]
*19 uio_in[5]
*20 uio_in[6]
*21 uio_in[7]
*22 net24
*23 net10
*24 net11
*25 net12
*26 net13
*27 net14
*28 net15
*29 net16
*30 uio_out[0]
*31 net17
*32 net18
*33 net19
*34 net20
*35 net21
*36 net22
*37 net23
*38 uo_out[0]
*39 uo_out[1]
*40 uo_out[2]
*41 uo_out[3]
*42 uo_out[4]
*43 uo_out[5]
*44 uo_out[6]
*45 uo_out[7]
*46 _000_
*47 _001_
*48 _002_
*49 _003_
*50 _004_
*51 _005_
*52 _006_
*53 _007_
*54 _008_
*55 _009_
*56 _010_
*57 _011_
*58 _012_
*59 _013_
*60 _014_
*61 _015_
*62 _016_
*63 _017_
*64 _018_
*65 _019_
*66 _020_
*67 _021_
*68 _022_
*69 _023_
*70 _024_
*71 _025_
*72 _026_
*73 _027_
*74 _028_
*75 _029_
*76 _030_
*77 _031_
*78 _032_
*79 _033_
*80 _034_
*81 _035_
*82 _036_
*83 _037_
*84 _038_
*85 _039_
*86 _040_
*87 _041_
*88 _042_
*89 _043_
*90 _044_
*91 _045_
*92 _046_
*93 _047_
*94 _048_
*95 _049_
*96 _050_
*97 _051_
*98 _052_
*99 _053_
*100 _054_
*101 _055_
*102 _056_
*103 _057_
*104 _058_
*105 _059_
*106 _060_
*107 _061_
*108 _062_
*109 _063_
*110 _064_
*111 _065_
*112 _066_
*113 _067_
*114 _068_
*115 _069_
*116 _070_
*117 _071_
*118 _072_
*119 _073_
*120 _074_
*121 _075_
*122 _076_
*123 _077_
*124 _078_
*125 _079_
*126 _080_
*127 _081_
*128 _082_
*129 _083_
*130 _084_
*131 _085_
*132 _086_
*133 _087_
*134 _088_
*135 _089_
*136 _090_
*137 _091_
*138 _092_
*139 _093_
*140 _094_
*141 _095_
*142 _096_
*143 _097_
*144 _098_
*145 _099_
*146 _100_
*147 _101_
*148 _102_
*149 _103_
*150 _104_
*151 _105_
*152 _106_
*153 _107_
*154 _108_
*155 _109_
*156 _110_
*157 _111_
*158 _112_
*159 _113_
*160 _114_
*161 _115_
*162 _116_
*163 _117_
*164 _118_
*165 _119_
*166 _120_
*167 _121_
*168 _122_
*169 _123_
*170 _124_
*171 _125_
*172 _126_
*173 _127_
*174 _128_
*175 _129_
*176 _130_
*177 _131_
*178 _132_
*179 _133_
*180 _134_
*181 _135_
*182 _136_
*183 _137_
*184 _138_
*185 _139_
*186 _140_
*187 _141_
*188 _142_
*189 _143_
*190 _144_
*191 _145_
*192 _146_
*193 _147_
*194 _148_
*195 _149_
*196 _150_
*197 _151_
*198 _152_
*199 _153_
*200 _154_
*201 _155_
*202 _156_
*203 _157_
*204 _158_
*205 _159_
*206 _160_
*207 _161_
*208 _162_
*209 _163_
*210 _164_
*211 _165_
*212 _166_
*213 _167_
*214 _168_
*215 _169_
*216 _170_
*217 _171_
*218 _172_
*219 _173_
*220 _174_
*221 _175_
*222 _176_
*223 _177_
*224 _178_
*225 _179_
*226 _180_
*227 _181_
*228 _182_
*229 _183_
*230 _184_
*231 _185_
*232 _186_
*233 _187_
*234 _188_
*235 _189_
*236 _190_
*237 _191_
*238 _192_
*239 _193_
*240 _194_
*241 _195_
*242 _196_
*243 _197_
*244 _198_
*245 _199_
*246 _200_
*247 _201_
*248 _202_
*249 _203_
*250 _204_
*251 _205_
*252 _206_
*253 _207_
*254 _208_
*255 _209_
*256 _210_
*257 _211_
*258 _212_
*259 _213_
*260 _214_
*261 _215_
*262 _216_
*263 _217_
*264 _218_
*265 _219_
*266 _220_
*267 _221_
*268 _222_
*269 _223_
*270 _224_
*271 _225_
*272 _226_
*273 _227_
*274 _228_
*275 _229_
*276 _230_
*277 _231_
*278 _232_
*279 _233_
*280 _234_
*281 _235_
*282 _236_
*283 _237_
*284 _238_
*285 _239_
*286 _240_
*287 _241_
*288 _242_
*289 _243_
*290 _244_
*291 _245_
*292 _246_
*293 _247_
*294 _248_
*295 _249_
*296 _250_
*297 _251_
*298 _252_
*299 _253_
*300 _254_
*301 _255_
*302 _256_
*303 _257_
*304 _258_
*305 _259_
*306 _260_
*307 _261_
*308 _262_
*309 _263_
*310 _264_
*311 _265_
*312 _266_
*313 _267_
*314 _268_
*315 _269_
*316 _270_
*317 _271_
*318 _272_
*319 _273_
*320 _274_
*321 _275_
*322 _276_
*323 _277_
*324 _278_
*325 _279_
*326 _280_
*327 _281_
*328 _282_
*329 _283_
*330 _284_
*331 _285_
*332 _286_
*333 _287_
*334 _288_
*335 _289_
*336 _290_
*337 _291_
*338 _292_
*339 _293_
*340 _294_
*341 _295_
*342 _296_
*343 clknet_0_clk
*344 clknet_3_0__leaf_clk
*345 clknet_3_1__leaf_clk
*346 clknet_3_2__leaf_clk
*347 clknet_3_3__leaf_clk
*348 clknet_3_4__leaf_clk
*349 clknet_3_5__leaf_clk
*350 clknet_3_6__leaf_clk
*351 clknet_3_7__leaf_clk
*352 net1
*353 net2
*354 net25
*355 net26
*356 net27
*357 net28
*358 net29
*359 net3
*360 net30
*361 net31
*362 net32
*363 net33
*364 net34
*365 net35
*366 net36
*367 net37
*368 net38
*369 net39
*370 net4
*371 net40
*372 net41
*373 net42
*374 net43
*375 net44
*376 net45
*377 net46
*378 net47
*379 net48
*380 net49
*381 net5
*382 net50
*383 net51
*384 net52
*385 net53
*386 net54
*387 net55
*388 net56
*389 net57
*390 net58
*391 net59
*392 net6
*393 net60
*394 net61
*395 net62
*396 net63
*397 net64
*398 net65
*399 net66
*400 net67
*401 net68
*402 net69
*403 net7
*404 net70
*405 net71
*406 net72
*407 net73
*408 net74
*409 net75
*410 net76
*411 net77
*412 net78
*413 net8
*414 net9
*415 output_control\.blue_pixel\[0\]
*416 output_control\.blue_pixel\[1\]
*417 output_control\.green_pixel\[0\]
*418 output_control\.green_pixel\[1\]
*419 output_control\.red_pixel\[0\]
*420 output_control\.red_pixel\[1\]
*421 peripher_module\.bit_counter\[0\]
*422 peripher_module\.bit_counter\[1\]
*423 peripher_module\.bit_counter\[2\]
*424 peripher_module\.config_data\[0\]
*425 peripher_module\.config_data\[1\]
*426 peripher_module\.config_data\[2\]
*427 peripher_module\.config_data\[3\]
*428 peripher_module\.config_data\[4\]
*429 peripher_module\.config_data\[5\]
*430 peripher_module\.config_data\[6\]
*431 peripher_module\.config_data\[7\]
*432 peripher_module\.data_out\[0\]
*433 peripher_module\.data_out\[1\]
*434 peripher_module\.data_out\[2\]
*435 peripher_module\.data_out\[3\]
*436 peripher_module\.data_out\[4\]
*437 peripher_module\.data_out\[5\]
*438 peripher_module\.data_out\[6\]
*439 peripher_module\.data_out\[7\]
*440 peripher_module\.data_reg\[0\]
*441 peripher_module\.data_reg\[1\]
*442 peripher_module\.data_reg\[2\]
*443 peripher_module\.data_reg\[3\]
*444 peripher_module\.data_reg\[4\]
*445 peripher_module\.data_reg\[5\]
*446 peripher_module\.data_reg\[6\]
*447 peripher_module\.recieved_data\[0\]
*448 peripher_module\.recieved_data\[1\]
*449 peripher_module\.recieved_data\[2\]
*450 peripher_module\.recieved_data\[3\]
*451 peripher_module\.recieved_data\[4\]
*452 peripher_module\.recieved_data\[5\]
*453 peripher_module\.recieved_data\[6\]
*454 peripher_module\.recieved_data\[7\]
*455 rand_generator_mod\.LFSR\[0\]
*456 rand_generator_mod\.LFSR\[10\]
*457 rand_generator_mod\.LFSR\[11\]
*458 rand_generator_mod\.LFSR\[12\]
*459 rand_generator_mod\.LFSR\[13\]
*460 rand_generator_mod\.LFSR\[14\]
*461 rand_generator_mod\.LFSR\[15\]
*462 rand_generator_mod\.LFSR\[16\]
*463 rand_generator_mod\.LFSR\[17\]
*464 rand_generator_mod\.LFSR\[18\]
*465 rand_generator_mod\.LFSR\[19\]
*466 rand_generator_mod\.LFSR\[20\]
*467 rand_generator_mod\.LFSR\[21\]
*468 rand_generator_mod\.LFSR\[22\]
*469 rand_generator_mod\.LFSR\[23\]
*470 rand_generator_mod\.LFSR\[24\]
*471 rand_generator_mod\.LFSR\[25\]
*472 rand_generator_mod\.LFSR\[26\]
*473 rand_generator_mod\.LFSR\[27\]
*474 rand_generator_mod\.LFSR\[28\]
*475 rand_generator_mod\.LFSR\[29\]
*476 rand_generator_mod\.LFSR\[2\]
*477 rand_generator_mod\.LFSR\[30\]
*478 rand_generator_mod\.LFSR\[31\]
*479 rand_generator_mod\.LFSR\[32\]
*480 rand_generator_mod\.LFSR\[33\]
*481 rand_generator_mod\.LFSR\[34\]
*482 rand_generator_mod\.LFSR\[35\]
*483 rand_generator_mod\.LFSR\[36\]
*484 rand_generator_mod\.LFSR\[37\]
*485 rand_generator_mod\.LFSR\[38\]
*486 rand_generator_mod\.LFSR\[39\]
*487 rand_generator_mod\.LFSR\[3\]
*488 rand_generator_mod\.LFSR\[40\]
*489 rand_generator_mod\.LFSR\[41\]
*490 rand_generator_mod\.LFSR\[42\]
*491 rand_generator_mod\.LFSR\[43\]
*492 rand_generator_mod\.LFSR\[44\]
*493 rand_generator_mod\.LFSR\[45\]
*494 rand_generator_mod\.LFSR\[46\]
*495 rand_generator_mod\.LFSR\[47\]
*496 rand_generator_mod\.LFSR\[4\]
*497 rand_generator_mod\.LFSR\[5\]
*498 rand_generator_mod\.LFSR\[7\]
*499 rand_generator_mod\.LFSR\[8\]
*500 rand_generator_mod\.LFSR\[9\]
*501 vga_timing\.h_count\[0\]
*502 vga_timing\.h_count\[1\]
*503 vga_timing\.h_count\[2\]
*504 vga_timing\.h_count\[3\]
*505 vga_timing\.h_count\[4\]
*506 vga_timing\.h_count\[5\]
*507 vga_timing\.h_count\[6\]
*508 vga_timing\.h_count\[7\]
*509 vga_timing\.h_count\[8\]
*510 vga_timing\.h_count\[9\]
*511 vga_timing\.hs
*512 vga_timing\.v_count\[0\]
*513 vga_timing\.v_count\[1\]
*514 vga_timing\.v_count\[2\]
*515 vga_timing\.v_count\[3\]
*516 vga_timing\.v_count\[4\]
*517 vga_timing\.v_count\[5\]
*518 vga_timing\.v_count\[6\]
*519 vga_timing\.v_count\[7\]
*520 vga_timing\.v_count\[8\]
*521 vga_timing\.v_count\[9\]
*522 vga_timing\.vs
*523 vga_timing\.vs_pwm
*524 FILLER_0_0_109
*525 FILLER_0_0_113
*526 FILLER_0_0_125
*527 FILLER_0_0_137
*528 FILLER_0_0_141
*529 FILLER_0_0_15
*530 FILLER_0_0_153
*531 FILLER_0_0_165
*532 FILLER_0_0_169
*533 FILLER_0_0_181
*534 FILLER_0_0_193
*535 FILLER_0_0_197
*536 FILLER_0_0_209
*537 FILLER_0_0_221
*538 FILLER_0_0_225
*539 FILLER_0_0_237
*540 FILLER_0_0_249
*541 FILLER_0_0_253
*542 FILLER_0_0_265
*543 FILLER_0_0_27
*544 FILLER_0_0_277
*545 FILLER_0_0_281
*546 FILLER_0_0_29
*547 FILLER_0_0_293
*548 FILLER_0_0_3
*549 FILLER_0_0_305
*550 FILLER_0_0_309
*551 FILLER_0_0_321
*552 FILLER_0_0_333
*553 FILLER_0_0_337
*554 FILLER_0_0_349
*555 FILLER_0_0_41
*556 FILLER_0_0_53
*557 FILLER_0_0_57
*558 FILLER_0_0_69
*559 FILLER_0_0_81
*560 FILLER_0_0_85
*561 FILLER_0_0_97
*562 FILLER_0_10_109
*563 FILLER_0_10_121
*564 FILLER_0_10_133
*565 FILLER_0_10_139
*566 FILLER_0_10_141
*567 FILLER_0_10_15
*568 FILLER_0_10_153
*569 FILLER_0_10_165
*570 FILLER_0_10_177
*571 FILLER_0_10_189
*572 FILLER_0_10_195
*573 FILLER_0_10_197
*574 FILLER_0_10_209
*575 FILLER_0_10_221
*576 FILLER_0_10_233
*577 FILLER_0_10_245
*578 FILLER_0_10_251
*579 FILLER_0_10_253
*580 FILLER_0_10_265
*581 FILLER_0_10_27
*582 FILLER_0_10_277
*583 FILLER_0_10_289
*584 FILLER_0_10_29
*585 FILLER_0_10_3
*586 FILLER_0_10_301
*587 FILLER_0_10_307
*588 FILLER_0_10_309
*589 FILLER_0_10_321
*590 FILLER_0_10_333
*591 FILLER_0_10_345
*592 FILLER_0_10_41
*593 FILLER_0_10_53
*594 FILLER_0_10_65
*595 FILLER_0_10_77
*596 FILLER_0_10_83
*597 FILLER_0_10_85
*598 FILLER_0_10_97
*599 FILLER_0_11_105
*600 FILLER_0_11_111
*601 FILLER_0_11_113
*602 FILLER_0_11_125
*603 FILLER_0_11_137
*604 FILLER_0_11_149
*605 FILLER_0_11_15
*606 FILLER_0_11_161
*607 FILLER_0_11_167
*608 FILLER_0_11_169
*609 FILLER_0_11_181
*610 FILLER_0_11_193
*611 FILLER_0_11_205
*612 FILLER_0_11_217
*613 FILLER_0_11_223
*614 FILLER_0_11_225
*615 FILLER_0_11_237
*616 FILLER_0_11_249
*617 FILLER_0_11_261
*618 FILLER_0_11_27
*619 FILLER_0_11_273
*620 FILLER_0_11_279
*621 FILLER_0_11_281
*622 FILLER_0_11_293
*623 FILLER_0_11_3
*624 FILLER_0_11_305
*625 FILLER_0_11_317
*626 FILLER_0_11_329
*627 FILLER_0_11_335
*628 FILLER_0_11_337
*629 FILLER_0_11_349
*630 FILLER_0_11_39
*631 FILLER_0_11_51
*632 FILLER_0_11_55
*633 FILLER_0_11_57
*634 FILLER_0_11_69
*635 FILLER_0_11_81
*636 FILLER_0_11_93
*637 FILLER_0_12_109
*638 FILLER_0_12_121
*639 FILLER_0_12_133
*640 FILLER_0_12_139
*641 FILLER_0_12_141
*642 FILLER_0_12_15
*643 FILLER_0_12_153
*644 FILLER_0_12_165
*645 FILLER_0_12_177
*646 FILLER_0_12_189
*647 FILLER_0_12_195
*648 FILLER_0_12_197
*649 FILLER_0_12_209
*650 FILLER_0_12_221
*651 FILLER_0_12_233
*652 FILLER_0_12_245
*653 FILLER_0_12_251
*654 FILLER_0_12_253
*655 FILLER_0_12_265
*656 FILLER_0_12_27
*657 FILLER_0_12_277
*658 FILLER_0_12_289
*659 FILLER_0_12_29
*660 FILLER_0_12_3
*661 FILLER_0_12_301
*662 FILLER_0_12_307
*663 FILLER_0_12_309
*664 FILLER_0_12_321
*665 FILLER_0_12_333
*666 FILLER_0_12_345
*667 FILLER_0_12_41
*668 FILLER_0_12_53
*669 FILLER_0_12_65
*670 FILLER_0_12_77
*671 FILLER_0_12_83
*672 FILLER_0_12_85
*673 FILLER_0_12_97
*674 FILLER_0_13_105
*675 FILLER_0_13_111
*676 FILLER_0_13_113
*677 FILLER_0_13_125
*678 FILLER_0_13_137
*679 FILLER_0_13_149
*680 FILLER_0_13_15
*681 FILLER_0_13_161
*682 FILLER_0_13_167
*683 FILLER_0_13_169
*684 FILLER_0_13_181
*685 FILLER_0_13_193
*686 FILLER_0_13_205
*687 FILLER_0_13_217
*688 FILLER_0_13_223
*689 FILLER_0_13_225
*690 FILLER_0_13_237
*691 FILLER_0_13_249
*692 FILLER_0_13_261
*693 FILLER_0_13_27
*694 FILLER_0_13_273
*695 FILLER_0_13_279
*696 FILLER_0_13_281
*697 FILLER_0_13_293
*698 FILLER_0_13_3
*699 FILLER_0_13_305
*700 FILLER_0_13_317
*701 FILLER_0_13_329
*702 FILLER_0_13_335
*703 FILLER_0_13_337
*704 FILLER_0_13_349
*705 FILLER_0_13_39
*706 FILLER_0_13_51
*707 FILLER_0_13_55
*708 FILLER_0_13_57
*709 FILLER_0_13_69
*710 FILLER_0_13_81
*711 FILLER_0_13_93
*712 FILLER_0_14_109
*713 FILLER_0_14_121
*714 FILLER_0_14_133
*715 FILLER_0_14_139
*716 FILLER_0_14_141
*717 FILLER_0_14_15
*718 FILLER_0_14_153
*719 FILLER_0_14_165
*720 FILLER_0_14_177
*721 FILLER_0_14_189
*722 FILLER_0_14_195
*723 FILLER_0_14_197
*724 FILLER_0_14_209
*725 FILLER_0_14_221
*726 FILLER_0_14_233
*727 FILLER_0_14_245
*728 FILLER_0_14_251
*729 FILLER_0_14_253
*730 FILLER_0_14_265
*731 FILLER_0_14_27
*732 FILLER_0_14_277
*733 FILLER_0_14_289
*734 FILLER_0_14_29
*735 FILLER_0_14_3
*736 FILLER_0_14_301
*737 FILLER_0_14_307
*738 FILLER_0_14_309
*739 FILLER_0_14_321
*740 FILLER_0_14_333
*741 FILLER_0_14_345
*742 FILLER_0_14_41
*743 FILLER_0_14_53
*744 FILLER_0_14_65
*745 FILLER_0_14_77
*746 FILLER_0_14_83
*747 FILLER_0_14_85
*748 FILLER_0_14_97
*749 FILLER_0_15_105
*750 FILLER_0_15_111
*751 FILLER_0_15_113
*752 FILLER_0_15_125
*753 FILLER_0_15_137
*754 FILLER_0_15_149
*755 FILLER_0_15_15
*756 FILLER_0_15_161
*757 FILLER_0_15_167
*758 FILLER_0_15_169
*759 FILLER_0_15_181
*760 FILLER_0_15_193
*761 FILLER_0_15_205
*762 FILLER_0_15_217
*763 FILLER_0_15_223
*764 FILLER_0_15_225
*765 FILLER_0_15_237
*766 FILLER_0_15_249
*767 FILLER_0_15_261
*768 FILLER_0_15_27
*769 FILLER_0_15_273
*770 FILLER_0_15_279
*771 FILLER_0_15_281
*772 FILLER_0_15_293
*773 FILLER_0_15_3
*774 FILLER_0_15_305
*775 FILLER_0_15_317
*776 FILLER_0_15_329
*777 FILLER_0_15_335
*778 FILLER_0_15_337
*779 FILLER_0_15_349
*780 FILLER_0_15_39
*781 FILLER_0_15_51
*782 FILLER_0_15_55
*783 FILLER_0_15_57
*784 FILLER_0_15_69
*785 FILLER_0_15_81
*786 FILLER_0_15_93
*787 FILLER_0_16_109
*788 FILLER_0_16_121
*789 FILLER_0_16_133
*790 FILLER_0_16_139
*791 FILLER_0_16_141
*792 FILLER_0_16_15
*793 FILLER_0_16_153
*794 FILLER_0_16_165
*795 FILLER_0_16_177
*796 FILLER_0_16_189
*797 FILLER_0_16_195
*798 FILLER_0_16_197
*799 FILLER_0_16_209
*800 FILLER_0_16_221
*801 FILLER_0_16_233
*802 FILLER_0_16_245
*803 FILLER_0_16_251
*804 FILLER_0_16_253
*805 FILLER_0_16_265
*806 FILLER_0_16_27
*807 FILLER_0_16_277
*808 FILLER_0_16_289
*809 FILLER_0_16_29
*810 FILLER_0_16_3
*811 FILLER_0_16_301
*812 FILLER_0_16_307
*813 FILLER_0_16_309
*814 FILLER_0_16_321
*815 FILLER_0_16_333
*816 FILLER_0_16_345
*817 FILLER_0_16_41
*818 FILLER_0_16_53
*819 FILLER_0_16_65
*820 FILLER_0_16_77
*821 FILLER_0_16_83
*822 FILLER_0_16_85
*823 FILLER_0_16_97
*824 FILLER_0_17_105
*825 FILLER_0_17_111
*826 FILLER_0_17_113
*827 FILLER_0_17_125
*828 FILLER_0_17_129
*829 FILLER_0_17_140
*830 FILLER_0_17_15
*831 FILLER_0_17_157
*832 FILLER_0_17_165
*833 FILLER_0_17_190
*834 FILLER_0_17_202
*835 FILLER_0_17_210
*836 FILLER_0_17_221
*837 FILLER_0_17_241
*838 FILLER_0_17_253
*839 FILLER_0_17_265
*840 FILLER_0_17_27
*841 FILLER_0_17_277
*842 FILLER_0_17_281
*843 FILLER_0_17_293
*844 FILLER_0_17_3
*845 FILLER_0_17_305
*846 FILLER_0_17_317
*847 FILLER_0_17_329
*848 FILLER_0_17_335
*849 FILLER_0_17_337
*850 FILLER_0_17_349
*851 FILLER_0_17_39
*852 FILLER_0_17_51
*853 FILLER_0_17_55
*854 FILLER_0_17_57
*855 FILLER_0_17_69
*856 FILLER_0_17_81
*857 FILLER_0_17_93
*858 FILLER_0_18_109
*859 FILLER_0_18_121
*860 FILLER_0_18_129
*861 FILLER_0_18_15
*862 FILLER_0_18_161
*863 FILLER_0_18_165
*864 FILLER_0_18_185
*865 FILLER_0_18_194
*866 FILLER_0_18_203
*867 FILLER_0_18_211
*868 FILLER_0_18_240
*869 FILLER_0_18_27
*870 FILLER_0_18_273
*871 FILLER_0_18_285
*872 FILLER_0_18_29
*873 FILLER_0_18_297
*874 FILLER_0_18_3
*875 FILLER_0_18_305
*876 FILLER_0_18_309
*877 FILLER_0_18_321
*878 FILLER_0_18_333
*879 FILLER_0_18_345
*880 FILLER_0_18_41
*881 FILLER_0_18_53
*882 FILLER_0_18_65
*883 FILLER_0_18_77
*884 FILLER_0_18_83
*885 FILLER_0_18_85
*886 FILLER_0_18_97
*887 FILLER_0_19_104
*888 FILLER_0_19_113
*889 FILLER_0_19_125
*890 FILLER_0_19_15
*891 FILLER_0_19_159
*892 FILLER_0_19_167
*893 FILLER_0_19_169
*894 FILLER_0_19_201
*895 FILLER_0_19_250
*896 FILLER_0_19_27
*897 FILLER_0_19_278
*898 FILLER_0_19_3
*899 FILLER_0_19_301
*900 FILLER_0_19_313
*901 FILLER_0_19_325
*902 FILLER_0_19_333
*903 FILLER_0_19_337
*904 FILLER_0_19_349
*905 FILLER_0_19_39
*906 FILLER_0_19_51
*907 FILLER_0_19_55
*908 FILLER_0_19_57
*909 FILLER_0_19_69
*910 FILLER_0_19_80
*911 FILLER_0_19_92
*912 FILLER_0_1_105
*913 FILLER_0_1_111
*914 FILLER_0_1_113
*915 FILLER_0_1_125
*916 FILLER_0_1_137
*917 FILLER_0_1_149
*918 FILLER_0_1_15
*919 FILLER_0_1_161
*920 FILLER_0_1_167
*921 FILLER_0_1_169
*922 FILLER_0_1_181
*923 FILLER_0_1_193
*924 FILLER_0_1_205
*925 FILLER_0_1_217
*926 FILLER_0_1_223
*927 FILLER_0_1_225
*928 FILLER_0_1_237
*929 FILLER_0_1_249
*930 FILLER_0_1_261
*931 FILLER_0_1_27
*932 FILLER_0_1_273
*933 FILLER_0_1_279
*934 FILLER_0_1_281
*935 FILLER_0_1_293
*936 FILLER_0_1_3
*937 FILLER_0_1_305
*938 FILLER_0_1_317
*939 FILLER_0_1_329
*940 FILLER_0_1_335
*941 FILLER_0_1_337
*942 FILLER_0_1_349
*943 FILLER_0_1_39
*944 FILLER_0_1_51
*945 FILLER_0_1_55
*946 FILLER_0_1_57
*947 FILLER_0_1_69
*948 FILLER_0_1_81
*949 FILLER_0_1_93
*950 FILLER_0_20_106
*951 FILLER_0_20_118
*952 FILLER_0_20_122
*953 FILLER_0_20_129
*954 FILLER_0_20_138
*955 FILLER_0_20_15
*956 FILLER_0_20_165
*957 FILLER_0_20_184
*958 FILLER_0_20_194
*959 FILLER_0_20_205
*960 FILLER_0_20_248
*961 FILLER_0_20_253
*962 FILLER_0_20_27
*963 FILLER_0_20_29
*964 FILLER_0_20_292
*965 FILLER_0_20_3
*966 FILLER_0_20_302
*967 FILLER_0_20_309
*968 FILLER_0_20_321
*969 FILLER_0_20_333
*970 FILLER_0_20_345
*971 FILLER_0_20_41
*972 FILLER_0_20_53
*973 FILLER_0_20_64
*974 FILLER_0_20_94
*975 FILLER_0_21_102
*976 FILLER_0_21_110
*977 FILLER_0_21_113
*978 FILLER_0_21_131
*979 FILLER_0_21_146
*980 FILLER_0_21_15
*981 FILLER_0_21_166
*982 FILLER_0_21_222
*983 FILLER_0_21_241
*984 FILLER_0_21_256
*985 FILLER_0_21_262
*986 FILLER_0_21_27
*987 FILLER_0_21_279
*988 FILLER_0_21_281
*989 FILLER_0_21_3
*990 FILLER_0_21_308
*991 FILLER_0_21_320
*992 FILLER_0_21_332
*993 FILLER_0_21_337
*994 FILLER_0_21_349
*995 FILLER_0_21_39
*996 FILLER_0_21_51
*997 FILLER_0_21_55
*998 FILLER_0_21_73
*999 FILLER_0_22_108
*1000 FILLER_0_22_114
*1001 FILLER_0_22_131
*1002 FILLER_0_22_139
*1003 FILLER_0_22_15
*1004 FILLER_0_22_160
*1005 FILLER_0_22_168
*1006 FILLER_0_22_195
*1007 FILLER_0_22_205
*1008 FILLER_0_22_209
*1009 FILLER_0_22_213
*1010 FILLER_0_22_221
*1011 FILLER_0_22_237
*1012 FILLER_0_22_247
*1013 FILLER_0_22_251
*1014 FILLER_0_22_266
*1015 FILLER_0_22_27
*1016 FILLER_0_22_270
*1017 FILLER_0_22_284
*1018 FILLER_0_22_288
*1019 FILLER_0_22_29
*1020 FILLER_0_22_3
*1021 FILLER_0_22_309
*1022 FILLER_0_22_321
*1023 FILLER_0_22_333
*1024 FILLER_0_22_345
*1025 FILLER_0_22_41
*1026 FILLER_0_22_53
*1027 FILLER_0_22_61
*1028 FILLER_0_22_69
*1029 FILLER_0_22_85
*1030 FILLER_0_23_110
*1031 FILLER_0_23_15
*1032 FILLER_0_23_153
*1033 FILLER_0_23_157
*1034 FILLER_0_23_165
*1035 FILLER_0_23_169
*1036 FILLER_0_23_173
*1037 FILLER_0_23_184
*1038 FILLER_0_23_192
*1039 FILLER_0_23_204
*1040 FILLER_0_23_219
*1041 FILLER_0_23_223
*1042 FILLER_0_23_27
*1043 FILLER_0_23_277
*1044 FILLER_0_23_3
*1045 FILLER_0_23_301
*1046 FILLER_0_23_318
*1047 FILLER_0_23_330
*1048 FILLER_0_23_337
*1049 FILLER_0_23_349
*1050 FILLER_0_23_39
*1051 FILLER_0_23_51
*1052 FILLER_0_23_55
*1053 FILLER_0_23_57
*1054 FILLER_0_23_65
*1055 FILLER_0_23_72
*1056 FILLER_0_23_81
*1057 FILLER_0_23_98
*1058 FILLER_0_24_109
*1059 FILLER_0_24_132
*1060 FILLER_0_24_15
*1061 FILLER_0_24_157
*1062 FILLER_0_24_181
*1063 FILLER_0_24_193
*1064 FILLER_0_24_197
*1065 FILLER_0_24_204
*1066 FILLER_0_24_250
*1067 FILLER_0_24_264
*1068 FILLER_0_24_27
*1069 FILLER_0_24_29
*1070 FILLER_0_24_3
*1071 FILLER_0_24_306
*1072 FILLER_0_24_309
*1073 FILLER_0_24_321
*1074 FILLER_0_24_333
*1075 FILLER_0_24_345
*1076 FILLER_0_24_41
*1077 FILLER_0_24_53
*1078 FILLER_0_24_85
*1079 FILLER_0_24_97
*1080 FILLER_0_25_109
*1081 FILLER_0_25_113
*1082 FILLER_0_25_117
*1083 FILLER_0_25_134
*1084 FILLER_0_25_15
*1085 FILLER_0_25_162
*1086 FILLER_0_25_187
*1087 FILLER_0_25_195
*1088 FILLER_0_25_212
*1089 FILLER_0_25_249
*1090 FILLER_0_25_261
*1091 FILLER_0_25_266
*1092 FILLER_0_25_27
*1093 FILLER_0_25_279
*1094 FILLER_0_25_292
*1095 FILLER_0_25_3
*1096 FILLER_0_25_301
*1097 FILLER_0_25_313
*1098 FILLER_0_25_325
*1099 FILLER_0_25_333
*1100 FILLER_0_25_337
*1101 FILLER_0_25_349
*1102 FILLER_0_25_39
*1103 FILLER_0_25_51
*1104 FILLER_0_25_55
*1105 FILLER_0_25_57
*1106 FILLER_0_25_61
*1107 FILLER_0_25_97
*1108 FILLER_0_26_109
*1109 FILLER_0_26_117
*1110 FILLER_0_26_141
*1111 FILLER_0_26_15
*1112 FILLER_0_26_171
*1113 FILLER_0_26_194
*1114 FILLER_0_26_213
*1115 FILLER_0_26_231
*1116 FILLER_0_26_243
*1117 FILLER_0_26_251
*1118 FILLER_0_26_258
*1119 FILLER_0_26_266
*1120 FILLER_0_26_27
*1121 FILLER_0_26_287
*1122 FILLER_0_26_29
*1123 FILLER_0_26_3
*1124 FILLER_0_26_300
*1125 FILLER_0_26_309
*1126 FILLER_0_26_321
*1127 FILLER_0_26_325
*1128 FILLER_0_26_342
*1129 FILLER_0_26_350
*1130 FILLER_0_26_41
*1131 FILLER_0_26_53
*1132 FILLER_0_26_85
*1133 FILLER_0_27_105
*1134 FILLER_0_27_111
*1135 FILLER_0_27_113
*1136 FILLER_0_27_119
*1137 FILLER_0_27_15
*1138 FILLER_0_27_177
*1139 FILLER_0_27_203
*1140 FILLER_0_27_223
*1141 FILLER_0_27_225
*1142 FILLER_0_27_237
*1143 FILLER_0_27_243
*1144 FILLER_0_27_263
*1145 FILLER_0_27_27
*1146 FILLER_0_27_271
*1147 FILLER_0_27_279
*1148 FILLER_0_27_281
*1149 FILLER_0_27_3
*1150 FILLER_0_27_308
*1151 FILLER_0_27_320
*1152 FILLER_0_27_326
*1153 FILLER_0_27_340
*1154 FILLER_0_27_348
*1155 FILLER_0_27_39
*1156 FILLER_0_27_51
*1157 FILLER_0_27_55
*1158 FILLER_0_27_57
*1159 FILLER_0_27_63
*1160 FILLER_0_28_105
*1161 FILLER_0_28_127
*1162 FILLER_0_28_131
*1163 FILLER_0_28_15
*1164 FILLER_0_28_161
*1165 FILLER_0_28_173
*1166 FILLER_0_28_177
*1167 FILLER_0_28_181
*1168 FILLER_0_28_185
*1169 FILLER_0_28_193
*1170 FILLER_0_28_197
*1171 FILLER_0_28_221
*1172 FILLER_0_28_229
*1173 FILLER_0_28_241
*1174 FILLER_0_28_269
*1175 FILLER_0_28_27
*1176 FILLER_0_28_29
*1177 FILLER_0_28_295
*1178 FILLER_0_28_3
*1179 FILLER_0_28_307
*1180 FILLER_0_28_309
*1181 FILLER_0_28_321
*1182 FILLER_0_28_346
*1183 FILLER_0_28_350
*1184 FILLER_0_28_41
*1185 FILLER_0_28_53
*1186 FILLER_0_28_81
*1187 FILLER_0_29_110
*1188 FILLER_0_29_113
*1189 FILLER_0_29_125
*1190 FILLER_0_29_133
*1191 FILLER_0_29_137
*1192 FILLER_0_29_146
*1193 FILLER_0_29_15
*1194 FILLER_0_29_156
*1195 FILLER_0_29_185
*1196 FILLER_0_29_200
*1197 FILLER_0_29_219
*1198 FILLER_0_29_223
*1199 FILLER_0_29_241
*1200 FILLER_0_29_249
*1201 FILLER_0_29_259
*1202 FILLER_0_29_27
*1203 FILLER_0_29_278
*1204 FILLER_0_29_286
*1205 FILLER_0_29_294
*1206 FILLER_0_29_3
*1207 FILLER_0_29_312
*1208 FILLER_0_29_316
*1209 FILLER_0_29_342
*1210 FILLER_0_29_350
*1211 FILLER_0_29_39
*1212 FILLER_0_29_51
*1213 FILLER_0_29_73
*1214 FILLER_0_2_109
*1215 FILLER_0_2_121
*1216 FILLER_0_2_133
*1217 FILLER_0_2_139
*1218 FILLER_0_2_141
*1219 FILLER_0_2_15
*1220 FILLER_0_2_153
*1221 FILLER_0_2_165
*1222 FILLER_0_2_177
*1223 FILLER_0_2_189
*1224 FILLER_0_2_195
*1225 FILLER_0_2_197
*1226 FILLER_0_2_209
*1227 FILLER_0_2_221
*1228 FILLER_0_2_233
*1229 FILLER_0_2_245
*1230 FILLER_0_2_251
*1231 FILLER_0_2_253
*1232 FILLER_0_2_265
*1233 FILLER_0_2_27
*1234 FILLER_0_2_277
*1235 FILLER_0_2_289
*1236 FILLER_0_2_29
*1237 FILLER_0_2_3
*1238 FILLER_0_2_301
*1239 FILLER_0_2_307
*1240 FILLER_0_2_309
*1241 FILLER_0_2_321
*1242 FILLER_0_2_333
*1243 FILLER_0_2_345
*1244 FILLER_0_2_41
*1245 FILLER_0_2_53
*1246 FILLER_0_2_65
*1247 FILLER_0_2_77
*1248 FILLER_0_2_83
*1249 FILLER_0_2_85
*1250 FILLER_0_2_97
*1251 FILLER_0_30_113
*1252 FILLER_0_30_147
*1253 FILLER_0_30_15
*1254 FILLER_0_30_152
*1255 FILLER_0_30_158
*1256 FILLER_0_30_180
*1257 FILLER_0_30_189
*1258 FILLER_0_30_195
*1259 FILLER_0_30_197
*1260 FILLER_0_30_203
*1261 FILLER_0_30_213
*1262 FILLER_0_30_23
*1263 FILLER_0_30_239
*1264 FILLER_0_30_253
*1265 FILLER_0_30_268
*1266 FILLER_0_30_291
*1267 FILLER_0_30_295
*1268 FILLER_0_30_3
*1269 FILLER_0_30_304
*1270 FILLER_0_30_309
*1271 FILLER_0_30_342
*1272 FILLER_0_30_350
*1273 FILLER_0_30_42
*1274 FILLER_0_30_54
*1275 FILLER_0_30_93
*1276 FILLER_0_31_102
*1277 FILLER_0_31_110
*1278 FILLER_0_31_119
*1279 FILLER_0_31_137
*1280 FILLER_0_31_15
*1281 FILLER_0_31_152
*1282 FILLER_0_31_163
*1283 FILLER_0_31_185
*1284 FILLER_0_31_189
*1285 FILLER_0_31_212
*1286 FILLER_0_31_219
*1287 FILLER_0_31_237
*1288 FILLER_0_31_249
*1289 FILLER_0_31_277
*1290 FILLER_0_31_281
*1291 FILLER_0_31_293
*1292 FILLER_0_31_3
*1293 FILLER_0_31_301
*1294 FILLER_0_31_309
*1295 FILLER_0_31_333
*1296 FILLER_0_31_337
*1297 FILLER_0_31_349
*1298 FILLER_0_31_55
*1299 FILLER_0_31_57
*1300 FILLER_0_31_72
*1301 FILLER_0_31_84
*1302 FILLER_0_31_90
*1303 FILLER_0_32_116
*1304 FILLER_0_32_139
*1305 FILLER_0_32_15
*1306 FILLER_0_32_165
*1307 FILLER_0_32_173
*1308 FILLER_0_32_191
*1309 FILLER_0_32_195
*1310 FILLER_0_32_197
*1311 FILLER_0_32_21
*1312 FILLER_0_32_242
*1313 FILLER_0_32_250
*1314 FILLER_0_32_253
*1315 FILLER_0_32_264
*1316 FILLER_0_32_282
*1317 FILLER_0_32_288
*1318 FILLER_0_32_295
*1319 FILLER_0_32_3
*1320 FILLER_0_32_307
*1321 FILLER_0_32_309
*1322 FILLER_0_32_317
*1323 FILLER_0_32_330
*1324 FILLER_0_32_342
*1325 FILLER_0_32_350
*1326 FILLER_0_32_45
*1327 FILLER_0_32_52
*1328 FILLER_0_32_64
*1329 FILLER_0_32_72
*1330 FILLER_0_32_80
*1331 FILLER_0_32_88
*1332 FILLER_0_33_105
*1333 FILLER_0_33_111
*1334 FILLER_0_33_113
*1335 FILLER_0_33_125
*1336 FILLER_0_33_157
*1337 FILLER_0_33_165
*1338 FILLER_0_33_185
*1339 FILLER_0_33_197
*1340 FILLER_0_33_209
*1341 FILLER_0_33_221
*1342 FILLER_0_33_241
*1343 FILLER_0_33_247
*1344 FILLER_0_33_256
*1345 FILLER_0_33_26
*1346 FILLER_0_33_274
*1347 FILLER_0_33_286
*1348 FILLER_0_33_298
*1349 FILLER_0_33_3
*1350 FILLER_0_33_306
*1351 FILLER_0_33_342
*1352 FILLER_0_33_350
*1353 FILLER_0_33_54
*1354 FILLER_0_33_57
*1355 FILLER_0_33_9
*1356 FILLER_0_34_100
*1357 FILLER_0_34_112
*1358 FILLER_0_34_124
*1359 FILLER_0_34_138
*1360 FILLER_0_34_147
*1361 FILLER_0_34_155
*1362 FILLER_0_34_160
*1363 FILLER_0_34_168
*1364 FILLER_0_34_178
*1365 FILLER_0_34_190
*1366 FILLER_0_34_197
*1367 FILLER_0_34_203
*1368 FILLER_0_34_215
*1369 FILLER_0_34_223
*1370 FILLER_0_34_253
*1371 FILLER_0_34_257
*1372 FILLER_0_34_265
*1373 FILLER_0_34_27
*1374 FILLER_0_34_29
*1375 FILLER_0_34_290
*1376 FILLER_0_34_298
*1377 FILLER_0_34_3
*1378 FILLER_0_34_305
*1379 FILLER_0_34_309
*1380 FILLER_0_34_346
*1381 FILLER_0_34_350
*1382 FILLER_0_34_37
*1383 FILLER_0_34_45
*1384 FILLER_0_34_53
*1385 FILLER_0_34_65
*1386 FILLER_0_34_73
*1387 FILLER_0_34_88
*1388 FILLER_0_34_95
*1389 FILLER_0_35_106
*1390 FILLER_0_35_113
*1391 FILLER_0_35_15
*1392 FILLER_0_35_151
*1393 FILLER_0_35_155
*1394 FILLER_0_35_161
*1395 FILLER_0_35_172
*1396 FILLER_0_35_180
*1397 FILLER_0_35_235
*1398 FILLER_0_35_240
*1399 FILLER_0_35_248
*1400 FILLER_0_35_259
*1401 FILLER_0_35_27
*1402 FILLER_0_35_281
*1403 FILLER_0_35_293
*1404 FILLER_0_35_3
*1405 FILLER_0_35_315
*1406 FILLER_0_35_319
*1407 FILLER_0_35_346
*1408 FILLER_0_35_350
*1409 FILLER_0_35_54
*1410 FILLER_0_35_57
*1411 FILLER_0_35_69
*1412 FILLER_0_35_77
*1413 FILLER_0_35_89
*1414 FILLER_0_36_115
*1415 FILLER_0_36_127
*1416 FILLER_0_36_131
*1417 FILLER_0_36_15
*1418 FILLER_0_36_178
*1419 FILLER_0_36_223
*1420 FILLER_0_36_235
*1421 FILLER_0_36_247
*1422 FILLER_0_36_251
*1423 FILLER_0_36_27
*1424 FILLER_0_36_277
*1425 FILLER_0_36_289
*1426 FILLER_0_36_29
*1427 FILLER_0_36_3
*1428 FILLER_0_36_346
*1429 FILLER_0_36_350
*1430 FILLER_0_36_62
*1431 FILLER_0_36_76
*1432 FILLER_0_36_85
*1433 FILLER_0_37_108
*1434 FILLER_0_37_113
*1435 FILLER_0_37_121
*1436 FILLER_0_37_15
*1437 FILLER_0_37_169
*1438 FILLER_0_37_176
*1439 FILLER_0_37_186
*1440 FILLER_0_37_205
*1441 FILLER_0_37_225
*1442 FILLER_0_37_235
*1443 FILLER_0_37_243
*1444 FILLER_0_37_27
*1445 FILLER_0_37_270
*1446 FILLER_0_37_278
*1447 FILLER_0_37_281
*1448 FILLER_0_37_3
*1449 FILLER_0_37_323
*1450 FILLER_0_37_331
*1451 FILLER_0_37_337
*1452 FILLER_0_37_349
*1453 FILLER_0_37_38
*1454 FILLER_0_37_50
*1455 FILLER_0_37_57
*1456 FILLER_0_37_65
*1457 FILLER_0_37_82
*1458 FILLER_0_37_90
*1459 FILLER_0_38_102
*1460 FILLER_0_38_106
*1461 FILLER_0_38_110
*1462 FILLER_0_38_113
*1463 FILLER_0_38_118
*1464 FILLER_0_38_122
*1465 FILLER_0_38_126
*1466 FILLER_0_38_139
*1467 FILLER_0_38_14
*1468 FILLER_0_38_145
*1469 FILLER_0_38_157
*1470 FILLER_0_38_165
*1471 FILLER_0_38_169
*1472 FILLER_0_38_173
*1473 FILLER_0_38_18
*1474 FILLER_0_38_180
*1475 FILLER_0_38_192
*1476 FILLER_0_38_200
*1477 FILLER_0_38_212
*1478 FILLER_0_38_22
*1479 FILLER_0_38_222
*1480 FILLER_0_38_225
*1481 FILLER_0_38_237
*1482 FILLER_0_38_249
*1483 FILLER_0_38_269
*1484 FILLER_0_38_277
*1485 FILLER_0_38_281
*1486 FILLER_0_38_293
*1487 FILLER_0_38_299
*1488 FILLER_0_38_3
*1489 FILLER_0_38_32
*1490 FILLER_0_38_335
*1491 FILLER_0_38_337
*1492 FILLER_0_38_38
*1493 FILLER_0_38_42
*1494 FILLER_0_38_46
*1495 FILLER_0_38_50
*1496 FILLER_0_38_54
*1497 FILLER_0_38_57
*1498 FILLER_0_38_62
*1499 FILLER_0_38_66
*1500 FILLER_0_38_70
*1501 FILLER_0_38_74
*1502 FILLER_0_38_78
*1503 FILLER_0_38_88
*1504 FILLER_0_38_94
*1505 FILLER_0_38_98
*1506 FILLER_0_3_105
*1507 FILLER_0_3_111
*1508 FILLER_0_3_113
*1509 FILLER_0_3_125
*1510 FILLER_0_3_137
*1511 FILLER_0_3_149
*1512 FILLER_0_3_15
*1513 FILLER_0_3_161
*1514 FILLER_0_3_167
*1515 FILLER_0_3_169
*1516 FILLER_0_3_181
*1517 FILLER_0_3_193
*1518 FILLER_0_3_205
*1519 FILLER_0_3_217
*1520 FILLER_0_3_223
*1521 FILLER_0_3_225
*1522 FILLER_0_3_237
*1523 FILLER_0_3_249
*1524 FILLER_0_3_261
*1525 FILLER_0_3_27
*1526 FILLER_0_3_273
*1527 FILLER_0_3_279
*1528 FILLER_0_3_281
*1529 FILLER_0_3_293
*1530 FILLER_0_3_3