*SPEF "ieee 1481-1999"
*DESIGN "tt_um_devinatkin_arduino_vga"
*DATE "11:11:11 Fri 11 11, 1111"
*VENDOR "OpenRCX"
*PROGRAM "Parallel Extraction"
*VERSION "1.0"
*DESIGN_FLOW "NAME_SCOPE LOCAL" "PIN_CAP NONE"
*DIVIDER /
*DELIMITER :
*BUS_DELIMITER []
*T_UNIT 1 NS
*C_UNIT 1 PF
*R_UNIT 1 OHM
*L_UNIT 1 HENRY

*NAME_MAP
*3 clk
*4 ena
*5 rst_n
*6 ui_in[0]
*7 ui_in[1]
*8 ui_in[2]
*9 ui_in[3]
*10 ui_in[4]
*11 ui_in[5]
*12 ui_in[6]
*13 ui_in[7]
*14 uio_in[0]
*15 uio_in[1]
*16 uio_in[2]
*17 uio_in[3]
*18 uio_in[4]
*19 uio_in[5]
*20 uio_in[6]
*21 uio_in[7]
*22 net25
*23 net10
*24 net11
*25 net12
*26 net13
*27 net14
*28 net15
*29 net16
*30 uio_out[0]
*31 net17
*32 net18
*33 net19
*34 net20
*35 net21
*36 net22
*37 net23
*38 uo_out[0]
*39 uo_out[1]
*40 uo_out[2]
*41 uo_out[3]
*42 uo_out[4]
*43 uo_out[5]
*44 uo_out[6]
*45 uo_out[7]
*46 _0000_
*47 _0001_
*48 _0002_
*49 _0003_
*50 _0004_
*51 _0005_
*52 _0006_
*53 _0007_
*54 _0008_
*55 _0009_
*56 _0010_
*57 _0011_
*58 _0012_
*59 _0013_
*60 _0014_
*61 _0015_
*62 _0016_
*63 _0017_
*64 _0018_
*65 _0019_
*66 _0020_
*67 _0021_
*68 _0022_
*69 _0023_
*70 _0024_
*71 _0025_
*72 _0026_
*73 _0027_
*74 _0028_
*75 _0029_
*76 _0030_
*77 _0031_
*78 _0032_
*79 _0033_
*80 _0034_
*81 _0035_
*82 _0036_
*83 _0037_
*84 _0038_
*85 _0039_
*86 _0040_
*87 _0041_
*88 _0042_
*89 _0043_
*90 _0044_
*91 _0045_
*92 _0046_
*93 _0047_
*94 _0048_
*95 _0049_
*96 _0050_
*97 _0051_
*98 _0052_
*99 _0053_
*100 _0054_
*101 _0055_
*102 _0056_
*103 _0057_
*104 _0058_
*105 _0059_
*106 _0060_
*107 _0061_
*108 _0062_
*109 _0063_
*110 _0064_
*111 _0065_
*112 _0066_
*113 _0067_
*114 _0068_
*115 _0069_
*116 _0070_
*117 _0071_
*118 _0072_
*119 _0073_
*120 _0074_
*121 _0075_
*122 _0076_
*123 _0077_
*124 _0078_
*125 _0079_
*126 _0080_
*127 _0081_
*128 _0082_
*129 _0083_
*130 _0084_
*131 _0085_
*132 _0086_
*133 _0087_
*134 _0089_
*135 _0090_
*136 _0091_
*137 _0092_
*138 _0093_
*139 _0094_
*140 _0095_
*141 _0096_
*142 _0097_
*143 _0098_
*144 _0099_
*145 _0100_
*146 _0101_
*147 _0102_
*148 _0103_
*149 _0104_
*150 _0105_
*151 _0106_
*152 _0107_
*153 _0108_
*154 _0109_
*155 _0110_
*156 _0111_
*157 _0112_
*158 _0113_
*159 _0114_
*160 _0115_
*161 _0116_
*162 _0117_
*163 _0118_
*164 _0119_
*165 _0120_
*166 _0121_
*167 _0122_
*168 _0123_
*169 _0124_
*170 _0125_
*171 _0126_
*172 _0127_
*173 _0128_
*174 _0129_
*175 _0130_
*176 _0131_
*177 _0132_
*178 _0133_
*179 _0134_
*180 _0135_
*181 _0136_
*182 _0137_
*183 _0138_
*184 _0139_
*185 _0140_
*186 _0141_
*187 _0142_
*188 _0143_
*189 _0144_
*190 _0145_
*191 _0146_
*192 _0147_
*193 _0148_
*194 _0149_
*195 _0150_
*196 _0151_
*197 _0152_
*198 _0153_
*199 _0154_
*200 _0155_
*201 _0156_
*202 _0157_
*203 _0158_
*204 _0159_
*205 _0160_
*206 _0161_
*207 _0162_
*208 _0163_
*209 _0164_
*210 _0165_
*211 _0166_
*212 _0167_
*213 _0168_
*214 _0169_
*215 _0170_
*216 _0171_
*217 _0172_
*218 _0173_
*219 _0174_
*220 _0175_
*221 _0176_
*222 _0177_
*223 _0178_
*224 _0179_
*225 _0180_
*226 _0181_
*227 _0182_
*228 _0183_
*229 _0184_
*230 _0185_
*231 _0186_
*232 _0187_
*233 _0188_
*234 _0189_
*235 _0190_
*236 _0191_
*237 _0192_
*238 _0193_
*239 _0194_
*240 _0195_
*241 _0196_
*242 _0197_
*243 _0198_
*244 _0199_
*245 _0200_
*246 _0201_
*247 _0202_
*248 _0203_
*249 _0204_
*250 _0205_
*251 _0206_
*252 _0207_
*253 _0208_
*254 _0209_
*255 _0210_
*256 _0211_
*257 _0212_
*258 _0213_
*259 _0214_
*260 _0215_
*261 _0216_
*262 _0217_
*263 _0218_
*264 _0219_
*265 _0220_
*266 _0221_
*267 _0222_
*268 _0223_
*269 _0224_
*270 _0225_
*271 _0226_
*272 _0227_
*273 _0228_
*274 _0229_
*275 _0230_
*276 _0231_
*277 _0232_
*278 _0233_
*279 _0234_
*280 _0235_
*281 _0236_
*282 _0237_
*283 _0238_
*284 _0239_
*285 _0240_
*286 _0241_
*287 _0242_
*288 _0243_
*289 _0244_
*290 _0245_
*291 _0246_
*292 _0247_
*293 _0248_
*294 _0249_
*295 _0250_
*296 _0251_
*297 _0252_
*298 _0253_
*299 _0254_
*300 _0255_
*301 _0256_
*302 _0257_
*303 _0258_
*304 _0259_
*305 _0260_
*306 _0261_
*307 _0262_
*308 _0263_
*309 _0264_
*310 _0265_
*311 _0266_
*312 _0267_
*313 _0268_
*314 _0269_
*315 _0270_
*316 _0271_
*317 _0272_
*318 _0273_
*319 _0274_
*320 _0275_
*321 _0276_
*322 _0277_
*323 _0278_
*324 _0279_
*325 _0280_
*326 _0281_
*327 _0282_
*328 _0283_
*329 _0284_
*330 _0285_
*331 _0286_
*332 _0287_
*333 _0288_
*334 _0289_
*335 _0290_
*336 _0291_
*337 _0292_
*338 _0293_
*339 _0294_
*340 _0295_
*341 _0296_
*342 _0297_
*343 _0298_
*344 _0299_
*345 _0300_
*346 _0301_
*347 _0302_
*348 _0303_
*349 _0304_
*350 _0305_
*351 _0306_
*352 _0307_
*353 _0308_
*354 _0309_
*355 _0310_
*356 _0311_
*357 _0312_
*358 _0313_
*359 _0314_
*360 _0315_
*361 _0316_
*362 _0317_
*363 _0318_
*364 _0319_
*365 _0320_
*366 _0321_
*367 _0322_
*368 _0323_
*369 _0324_
*370 _0325_
*371 _0326_
*372 _0327_
*373 _0328_
*374 _0329_
*375 _0330_
*376 _0331_
*377 _0332_
*378 _0333_
*379 _0334_
*380 _0335_
*381 _0336_
*382 _0337_
*383 _0338_
*384 _0339_
*385 _0340_
*386 _0341_
*387 _0342_
*388 _0343_
*389 _0344_
*390 _0345_
*391 _0346_
*392 _0347_
*393 _0348_
*394 _0349_
*395 _0350_
*396 _0351_
*397 _0352_
*398 _0353_
*399 _0354_
*400 _0355_
*401 _0356_
*402 _0357_
*403 _0358_
*404 _0359_
*405 _0360_
*406 _0361_
*407 _0362_
*408 _0363_
*409 _0364_
*410 _0365_
*411 _0366_
*412 _0367_
*413 _0368_
*414 _0369_
*415 _0370_
*416 _0371_
*417 _0372_
*418 _0373_
*419 _0374_
*420 _0375_
*421 _0376_
*422 _0377_
*423 _0378_
*424 _0379_
*425 _0380_
*426 _0381_
*427 _0382_
*428 _0383_
*429 _0384_
*430 _0385_
*431 _0386_
*432 _0387_
*433 _0388_
*434 _0389_
*435 _0390_
*436 _0391_
*437 _0392_
*438 _0393_
*439 _0394_
*440 _0395_
*441 _0396_
*442 _0397_
*443 _0398_
*444 _0399_
*445 _0400_
*446 _0401_
*447 _0402_
*448 _0403_
*449 _0404_
*450 _0405_
*451 _0406_
*452 _0407_
*453 _0408_
*454 _0409_
*455 _0410_
*456 _0411_
*457 _0412_
*458 _0413_
*459 _0414_
*460 _0415_
*461 _0416_
*462 _0417_
*463 _0418_
*464 _0419_
*465 _0420_
*466 _0421_
*467 _0422_
*468 _0423_
*469 _0424_
*470 _0425_
*471 _0426_
*472 _0427_
*473 _0428_
*474 _0429_
*475 _0430_
*476 _0431_
*477 _0432_
*478 _0433_
*479 _0434_
*480 _0435_
*481 _0436_
*482 _0437_
*483 _0438_
*484 _0439_
*485 _0440_
*486 _0441_
*487 _0442_
*488 _0443_
*489 _0444_
*490 _0445_
*491 _0446_
*492 _0447_
*493 _0448_
*494 _0449_
*495 _0450_
*496 _0451_
*497 _0452_
*498 _0453_
*499 _0454_
*500 _0455_
*501 _0456_
*502 _0457_
*503 _0458_
*504 _0459_
*505 _0460_
*506 _0461_
*507 _0462_
*508 _0463_
*509 _0464_
*510 _0465_
*511 _0466_
*512 _0467_
*513 _0468_
*514 _0469_
*515 _0470_
*516 _0471_
*517 _0472_
*518 _0473_
*519 _0474_
*520 _0475_
*521 _0476_
*522 _0477_
*523 _0478_
*524 _0479_
*525 _0480_
*526 _0481_
*527 _0482_
*528 _0483_
*529 _0484_
*530 _0485_
*531 _0486_
*532 _0487_
*533 _0488_
*534 _0489_
*535 _0490_
*536 _0491_
*537 _0492_
*538 _0493_
*539 _0494_
*540 _0495_
*541 _0496_
*542 _0497_
*543 _0498_
*544 character_memory_array\.char_memory_instances\[0\]\.char_memory_instance\.col_select\.sel\[0\]
*545 character_memory_array\.char_memory_instances\[0\]\.char_memory_instance\.col_select\.sel\[1\]
*546 character_memory_array\.char_memory_instances\[0\]\.char_memory_instance\.row_select\.sel\[0\]
*547 character_memory_array\.char_memory_instances\[0\]\.char_memory_instance\.row_select\.sel\[1\]
*548 character_memory_array\.char_memory_instances\[0\]\.char_memory_instance\.row_select\.sel\[2\]
*549 character_mux\.sel\[0\]
*550 character_mux\.sel\[1\]
*551 character_mux\.sel\[2\]
*552 character_mux\.sel\[3\]
*553 character_row\.address\[0\]
*554 character_row\.address\[1\]
*555 character_row\.address\[2\]
*556 character_row\.address\[3\]
*557 character_row\.address\[4\]
*558 character_row\.memory_array\[0\]\[3\]
*559 character_row\.memory_array\[1\]\[0\]
*560 character_row\.memory_array\[1\]\[3\]
*561 character_row\.memory_array\[2\]\[1\]
*562 character_row\.memory_array\[2\]\[3\]
*563 character_row\.memory_array\[3\]\[0\]
*564 character_row\.memory_array\[3\]\[3\]
*565 character_row\.memory_array\[4\]\[2\]
*566 character_row\.memory_array\[4\]\[3\]
*567 character_row\.memory_array\[5\]\[0\]
*568 character_row\.memory_array\[5\]\[3\]
*569 character_row\.memory_array\[6\]\[1\]
*570 character_row\.memory_array\[6\]\[3\]
*571 character_row\.memory_array\[7\]\[0\]
*572 character_row\.memory_array\[7\]\[3\]
*573 character_row\.write
*574 character_row\.xcoor\[2\]
*575 character_row\.xcoor\[3\]
*576 character_row\.xcoor\[4\]
*577 character_row\.xcoor\[5\]
*578 character_row\.xcoor\[6\]
*579 character_row\.xcoor\[7\]
*580 character_row\.xcoor\[8\]
*581 character_row\.xcoor\[9\]
*582 character_row\.ycoor\[3\]
*583 character_row\.ycoor\[4\]
*584 character_row\.ycoor\[5\]
*585 character_row\.ycoor\[6\]
*586 character_row\.ycoor\[7\]
*587 character_row\.ycoor\[8\]
*588 clknet_0_clk
*589 clknet_4_0_0_clk
*590 clknet_4_10_0_clk
*591 clknet_4_11_0_clk
*592 clknet_4_12_0_clk
*593 clknet_4_13_0_clk
*594 clknet_4_14_0_clk
*595 clknet_4_15_0_clk
*596 clknet_4_1_0_clk
*597 clknet_4_2_0_clk
*598 clknet_4_3_0_clk
*599 clknet_4_4_0_clk
*600 clknet_4_5_0_clk
*601 clknet_4_6_0_clk
*602 clknet_4_7_0_clk
*603 clknet_4_8_0_clk
*604 clknet_4_9_0_clk
*605 net1
*606 net2
*607 net24
*608 net26
*609 net27
*610 net28
*611 net29
*612 net3
*613 net30
*614 net31
*615 net32
*616 net33
*617 net34
*618 net35
*619 net36
*620 net37
*621 net38
*622 net39
*623 net4
*624 net40
*625 net41
*626 net42
*627 net43
*628 net44
*629 net45
*630 net46
*631 net47
*632 net48
*633 net49
*634 net5
*635 net50
*636 net51
*637 net52
*638 net53
*639 net54
*640 net55
*641 net56
*642 net57
*643 net58
*644 net59
*645 net6
*646 net60
*647 net61
*648 net62
*649 net63
*650 net64
*651 net65
*652 net66
*653 net67
*654 net68
*655 net69
*656 net7
*657 net70
*658 net71
*659 net72
*660 net73
*661 net74
*662 net75
*663 net76
*664 net77
*665 net78
*666 net79
*667 net8
*668 net80
*669 net81
*670 net82
*671 net83
*672 net84
*673 net85
*674 net86
*675 net87
*676 net88
*677 net89
*678 net9
*679 net90
*680 net91
*681 net92
*682 net93
*683 net94
*684 net95
*685 net96
*686 net97
*687 peripher_module\.bit_counter\[0\]
*688 peripher_module\.bit_counter\[1\]
*689 peripher_module\.bit_counter\[2\]
*690 peripher_module\.config_data\[0\]
*691 peripher_module\.config_data\[1\]
*692 peripher_module\.config_data\[2\]
*693 peripher_module\.config_data\[3\]
*694 peripher_module\.config_data\[4\]
*695 peripher_module\.config_data\[5\]
*696 peripher_module\.config_data\[6\]
*697 peripher_module\.config_data\[7\]
*698 peripher_module\.data_out\[0\]
*699 peripher_module\.data_out\[1\]
*700 peripher_module\.data_out\[2\]
*701 peripher_module\.data_out\[3\]
*702 peripher_module\.data_out\[4\]
*703 peripher_module\.data_out\[5\]
*704 peripher_module\.data_out\[6\]
*705 peripher_module\.data_out\[7\]
*706 peripher_module\.data_reg\[0\]
*707 peripher_module\.data_reg\[1\]
*708 peripher_module\.data_reg\[2\]
*709 peripher_module\.data_reg\[3\]
*710 peripher_module\.data_reg\[4\]
*711 peripher_module\.data_reg\[5\]
*712 peripher_module\.data_reg\[6\]
*713 peripher_module\.recieved_data\[0\]
*714 peripher_module\.recieved_data\[1\]
*715 peripher_module\.recieved_data\[2\]
*716 peripher_module\.recieved_data\[3\]
*717 peripher_module\.recieved_data\[4\]
*718 peripher_module\.recieved_data\[5\]
*719 peripher_module\.recieved_data\[6\]
*720 peripher_module\.recieved_data\[7\]
*721 pixel_multiplexer\.input0\[0\]
*722 pixel_multiplexer\.input0\[1\]
*723 pixel_multiplexer\.input0\[2\]
*724 pixel_multiplexer\.input0\[3\]
*725 pixel_multiplexer\.input0\[4\]
*726 pixel_multiplexer\.input0\[5\]
*727 rand_generator_mod\.LFSR\[0\]
*728 rand_generator_mod\.LFSR\[10\]
*729 rand_generator_mod\.LFSR\[11\]
*730 rand_generator_mod\.LFSR\[12\]
*731 rand_generator_mod\.LFSR\[13\]
*732 rand_generator_mod\.LFSR\[14\]
*733 rand_generator_mod\.LFSR\[15\]
*734 rand_generator_mod\.LFSR\[16\]
*735 rand_generator_mod\.LFSR\[17\]
*736 rand_generator_mod\.LFSR\[18\]
*737 rand_generator_mod\.LFSR\[19\]
*738 rand_generator_mod\.LFSR\[20\]
*739 rand_generator_mod\.LFSR\[21\]
*740 rand_generator_mod\.LFSR\[22\]
*741 rand_generator_mod\.LFSR\[23\]
*742 rand_generator_mod\.LFSR\[24\]
*743 rand_generator_mod\.LFSR\[25\]
*744 rand_generator_mod\.LFSR\[26\]
*745 rand_generator_mod\.LFSR\[27\]
*746 rand_generator_mod\.LFSR\[28\]
*747 rand_generator_mod\.LFSR\[29\]
*748 rand_generator_mod\.LFSR\[2\]
*749 rand_generator_mod\.LFSR\[30\]
*750 rand_generator_mod\.LFSR\[31\]
*751 rand_generator_mod\.LFSR\[32\]
*752 rand_generator_mod\.LFSR\[33\]
*753 rand_generator_mod\.LFSR\[34\]
*754 rand_generator_mod\.LFSR\[35\]
*755 rand_generator_mod\.LFSR\[36\]
*756 rand_generator_mod\.LFSR\[37\]
*757 rand_generator_mod\.LFSR\[38\]
*758 rand_generator_mod\.LFSR\[39\]
*759 rand_generator_mod\.LFSR\[3\]
*760 rand_generator_mod\.LFSR\[40\]
*761 rand_generator_mod\.LFSR\[41\]
*762 rand_generator_mod\.LFSR\[42\]
*763 rand_generator_mod\.LFSR\[43\]
*764 rand_generator_mod\.LFSR\[44\]
*765 rand_generator_mod\.LFSR\[45\]
*766 rand_generator_mod\.LFSR\[46\]
*767 rand_generator_mod\.LFSR\[47\]
*768 rand_generator_mod\.LFSR\[4\]
*769 rand_generator_mod\.LFSR\[5\]
*770 rand_generator_mod\.LFSR\[7\]
*771 rand_generator_mod\.LFSR\[8\]
*772 rand_generator_mod\.LFSR\[9\]
*773 vga_timing\.h_count\[0\]
*774 vga_timing\.h_count\[1\]
*775 vga_timing\.h_count\[2\]
*776 vga_timing\.h_count\[3\]
*777 vga_timing\.h_count\[4\]
*778 vga_timing\.h_count\[5\]
*779 vga_timing\.h_count\[6\]
*780 vga_timing\.h_count\[7\]
*781 vga_timing\.h_count\[8\]
*782 vga_timing\.h_count\[9\]
*783 vga_timing\.hs
*784 vga_timing\.v_count\[0\]
*785 vga_timing\.v_count\[1\]
*786 vga_timing\.v_count\[2\]
*787 vga_timing\.v_count\[3\]
*788 vga_timing\.v_count\[4\]
*789 vga_timing\.v_count\[5\]
*790 vga_timing\.v_count\[6\]
*791 vga_timing\.v_count\[7\]
*792 vga_timing\.v_count\[8\]
*793 vga_timing\.v_count\[9\]
*794 vga_timing\.vs
*795 vga_timing\.vs_pwm
*796 FILLER_0_0_109
*797 FILLER_0_0_113
*798 FILLER_0_0_125
*799 FILLER_0_0_137
*800 FILLER_0_0_141
*801 FILLER_0_0_15
*802 FILLER_0_0_153
*803 FILLER_0_0_165
*804 FILLER_0_0_169
*805 FILLER_0_0_181
*806 FILLER_0_0_193
*807 FILLER_0_0_197
*808 FILLER_0_0_209
*809 FILLER_0_0_221
*810 FILLER_0_0_225
*811 FILLER_0_0_237
*812 FILLER_0_0_249
*813 FILLER_0_0_253
*814 FILLER_0_0_265
*815 FILLER_0_0_27
*816 FILLER_0_0_277
*817 FILLER_0_0_281
*818 FILLER_0_0_29
*819 FILLER_0_0_293
*820 FILLER_0_0_3
*821 FILLER_0_0_305
*822 FILLER_0_0_309
*823 FILLER_0_0_321
*824 FILLER_0_0_333
*825 FILLER_0_0_337
*826 FILLER_0_0_349
*827 FILLER_0_0_41
*828 FILLER_0_0_53
*829 FILLER_0_0_57
*830 FILLER_0_0_69
*831 FILLER_0_0_81
*832 FILLER_0_0_85
*833 FILLER_0_0_97
*834 FILLER_0_10_128
*835 FILLER_0_10_134
*836 FILLER_0_10_141
*837 FILLER_0_10_15
*838 FILLER_0_10_152
*839 FILLER_0_10_164
*840 FILLER_0_10_176
*841 FILLER_0_10_210
*842 FILLER_0_10_218
*843 FILLER_0_10_250
*844 FILLER_0_10_27
*845 FILLER_0_10_279
*846 FILLER_0_10_29
*847 FILLER_0_10_291
*848 FILLER_0_10_3
*849 FILLER_0_10_303
*850 FILLER_0_10_307
*851 FILLER_0_10_309
*852 FILLER_0_10_321
*853 FILLER_0_10_333
*854 FILLER_0_10_345
*855 FILLER_0_10_41
*856 FILLER_0_10_53
*857 FILLER_0_10_65
*858 FILLER_0_10_83
*859 FILLER_0_10_85
*860 FILLER_0_11_111
*861 FILLER_0_11_113
*862 FILLER_0_11_118
*863 FILLER_0_11_143
*864 FILLER_0_11_15
*865 FILLER_0_11_167
*866 FILLER_0_11_185
*867 FILLER_0_11_194
*868 FILLER_0_11_220
*869 FILLER_0_11_230
*870 FILLER_0_11_27
*871 FILLER_0_11_281
*872 FILLER_0_11_293
*873 FILLER_0_11_3
*874 FILLER_0_11_305
*875 FILLER_0_11_317
*876 FILLER_0_11_329
*877 FILLER_0_11_335
*878 FILLER_0_11_337
*879 FILLER_0_11_349
*880 FILLER_0_11_39
*881 FILLER_0_11_51
*882 FILLER_0_11_55
*883 FILLER_0_11_57
*884 FILLER_0_11_69
*885 FILLER_0_11_99
*886 FILLER_0_12_101
*887 FILLER_0_12_113
*888 FILLER_0_12_149
*889 FILLER_0_12_15
*890 FILLER_0_12_169
*891 FILLER_0_12_186
*892 FILLER_0_12_195
*893 FILLER_0_12_245
*894 FILLER_0_12_250
*895 FILLER_0_12_27
*896 FILLER_0_12_277
*897 FILLER_0_12_289
*898 FILLER_0_12_29
*899 FILLER_0_12_3
*900 FILLER_0_12_301
*901 FILLER_0_12_307
*902 FILLER_0_12_309
*903 FILLER_0_12_321
*904 FILLER_0_12_333
*905 FILLER_0_12_345
*906 FILLER_0_12_41
*907 FILLER_0_12_53
*908 FILLER_0_12_65
*909 FILLER_0_12_83
*910 FILLER_0_12_85
*911 FILLER_0_13_108
*912 FILLER_0_13_113
*913 FILLER_0_13_140
*914 FILLER_0_13_15
*915 FILLER_0_13_185
*916 FILLER_0_13_214
*917 FILLER_0_13_223
*918 FILLER_0_13_228
*919 FILLER_0_13_237
*920 FILLER_0_13_267
*921 FILLER_0_13_27
*922 FILLER_0_13_279
*923 FILLER_0_13_281
*924 FILLER_0_13_293
*925 FILLER_0_13_3
*926 FILLER_0_13_305
*927 FILLER_0_13_317
*928 FILLER_0_13_329
*929 FILLER_0_13_335
*930 FILLER_0_13_337
*931 FILLER_0_13_349
*932 FILLER_0_13_39
*933 FILLER_0_13_51
*934 FILLER_0_13_55
*935 FILLER_0_13_57
*936 FILLER_0_13_65
*937 FILLER_0_14_122
*938 FILLER_0_14_134
*939 FILLER_0_14_15
*940 FILLER_0_14_152
*941 FILLER_0_14_175
*942 FILLER_0_14_183
*943 FILLER_0_14_207
*944 FILLER_0_14_229
*945 FILLER_0_14_240
*946 FILLER_0_14_253
*947 FILLER_0_14_264
*948 FILLER_0_14_27
*949 FILLER_0_14_279
*950 FILLER_0_14_29
*951 FILLER_0_14_291
*952 FILLER_0_14_3
*953 FILLER_0_14_303
*954 FILLER_0_14_307
*955 FILLER_0_14_309
*956 FILLER_0_14_321
*957 FILLER_0_14_333
*958 FILLER_0_14_345
*959 FILLER_0_14_41
*960 FILLER_0_14_53
*961 FILLER_0_14_65
*962 FILLER_0_14_73
*963 FILLER_0_14_78
*964 FILLER_0_15_111
*965 FILLER_0_15_121
*966 FILLER_0_15_125
*967 FILLER_0_15_142
*968 FILLER_0_15_15
*969 FILLER_0_15_160
*970 FILLER_0_15_167
*971 FILLER_0_15_169
*972 FILLER_0_15_173
*973 FILLER_0_15_182
*974 FILLER_0_15_194
*975 FILLER_0_15_200
*976 FILLER_0_15_249
*977 FILLER_0_15_255
*978 FILLER_0_15_27
*979 FILLER_0_15_297
*980 FILLER_0_15_3
*981 FILLER_0_15_309
*982 FILLER_0_15_321
*983 FILLER_0_15_333
*984 FILLER_0_15_337
*985 FILLER_0_15_349
*986 FILLER_0_15_39
*987 FILLER_0_15_51
*988 FILLER_0_15_73
*989 FILLER_0_15_81
*990 FILLER_0_15_93
*991 FILLER_0_16_116
*992 FILLER_0_16_139
*993 FILLER_0_16_157
*994 FILLER_0_16_162
*995 FILLER_0_16_170
*996 FILLER_0_16_188
*997 FILLER_0_16_207
*998 FILLER_0_16_211
*999 FILLER_0_16_249
*1000 FILLER_0_16_253
*1001 FILLER_0_16_270
*1002 FILLER_0_16_29
*1003 FILLER_0_16_297
*1004 FILLER_0_16_3
*1005 FILLER_0_16_305
*1006 FILLER_0_16_309
*1007 FILLER_0_16_321
*1008 FILLER_0_16_333
*1009 FILLER_0_16_345
*1010 FILLER_0_16_41
*1011 FILLER_0_16_74
*1012 FILLER_0_16_82
*1013 FILLER_0_16_85
*1014 FILLER_0_17_109
*1015 FILLER_0_17_113
*1016 FILLER_0_17_144
*1017 FILLER_0_17_15
*1018 FILLER_0_17_167
*1019 FILLER_0_17_172
*1020 FILLER_0_17_190
*1021 FILLER_0_17_198
*1022 FILLER_0_17_223
*1023 FILLER_0_17_253
*1024 FILLER_0_17_288
*1025 FILLER_0_17_299
*1026 FILLER_0_17_3
*1027 FILLER_0_17_311
*1028 FILLER_0_17_32
*1029 FILLER_0_17_323
*1030 FILLER_0_17_335
*1031 FILLER_0_17_337
*1032 FILLER_0_17_349
*1033 FILLER_0_17_36
*1034 FILLER_0_17_68
*1035 FILLER_0_17_83
*1036 FILLER_0_17_91
*1037 FILLER_0_18_108
*1038 FILLER_0_18_120
*1039 FILLER_0_18_139
*1040 FILLER_0_18_15
*1041 FILLER_0_18_150
*1042 FILLER_0_18_162
*1043 FILLER_0_18_168
*1044 FILLER_0_18_192
*1045 FILLER_0_18_197
*1046 FILLER_0_18_205
*1047 FILLER_0_18_235
*1048 FILLER_0_18_247
*1049 FILLER_0_18_251
*1050 FILLER_0_18_260
*1051 FILLER_0_18_27
*1052 FILLER_0_18_271
*1053 FILLER_0_18_283
*1054 FILLER_0_18_29
*1055 FILLER_0_18_295
*1056 FILLER_0_18_3
*1057 FILLER_0_18_307
*1058 FILLER_0_18_309
*1059 FILLER_0_18_321
*1060 FILLER_0_18_333
*1061 FILLER_0_18_345
*1062 FILLER_0_18_41
*1063 FILLER_0_18_71
*1064 FILLER_0_18_80
*1065 FILLER_0_18_85
*1066 FILLER_0_18_90
*1067 FILLER_0_19_110
*1068 FILLER_0_19_113
*1069 FILLER_0_19_125
*1070 FILLER_0_19_137
*1071 FILLER_0_19_149
*1072 FILLER_0_19_15
*1073 FILLER_0_19_161
*1074 FILLER_0_19_165
*1075 FILLER_0_19_169
*1076 FILLER_0_19_173
*1077 FILLER_0_19_182
*1078 FILLER_0_19_194
*1079 FILLER_0_19_200
*1080 FILLER_0_19_23
*1081 FILLER_0_19_245
*1082 FILLER_0_19_257
*1083 FILLER_0_19_263
*1084 FILLER_0_19_3
*1085 FILLER_0_19_304
*1086 FILLER_0_19_31
*1087 FILLER_0_19_316
*1088 FILLER_0_19_328
*1089 FILLER_0_19_337
*1090 FILLER_0_19_349
*1091 FILLER_0_19_43
*1092 FILLER_0_19_55
*1093 FILLER_0_19_57
*1094 FILLER_0_19_63
*1095 FILLER_0_19_81
*1096 FILLER_0_19_87
*1097 FILLER_0_19_93
*1098 FILLER_0_1_105
*1099 FILLER_0_1_111
*1100 FILLER_0_1_113
*1101 FILLER_0_1_125
*1102 FILLER_0_1_137
*1103 FILLER_0_1_149
*1104 FILLER_0_1_15
*1105 FILLER_0_1_161
*1106 FILLER_0_1_167
*1107 FILLER_0_1_169
*1108 FILLER_0_1_181
*1109 FILLER_0_1_193
*1110 FILLER_0_1_205
*1111 FILLER_0_1_217
*1112 FILLER_0_1_223
*1113 FILLER_0_1_225
*1114 FILLER_0_1_237
*1115 FILLER_0_1_249
*1116 FILLER_0_1_261
*1117 FILLER_0_1_27
*1118 FILLER_0_1_273
*1119 FILLER_0_1_279
*1120 FILLER_0_1_281
*1121 FILLER_0_1_293
*1122 FILLER_0_1_3
*1123 FILLER_0_1_305
*1124 FILLER_0_1_317
*1125 FILLER_0_1_329
*1126 FILLER_0_1_335
*1127 FILLER_0_1_337
*1128 FILLER_0_1_349
*1129 FILLER_0_1_39
*1130 FILLER_0_1_51
*1131 FILLER_0_1_55
*1132 FILLER_0_1_57
*1133 FILLER_0_1_69
*1134 FILLER_0_1_81
*1135 FILLER_0_1_93
*1136 FILLER_0_20_109
*1137 FILLER_0_20_122
*1138 FILLER_0_20_134
*1139 FILLER_0_20_141
*1140 FILLER_0_20_179
*1141 FILLER_0_20_191
*1142 FILLER_0_20_195
*1143 FILLER_0_20_221
*1144 FILLER_0_20_249
*1145 FILLER_0_20_253
*1146 FILLER_0_20_261
*1147 FILLER_0_20_3
*1148 FILLER_0_20_301
*1149 FILLER_0_20_307
*1150 FILLER_0_20_309
*1151 FILLER_0_20_321
*1152 FILLER_0_20_333
*1153 FILLER_0_20_345
*1154 FILLER_0_20_41
*1155 FILLER_0_20_53
*1156 FILLER_0_20_65
*1157 FILLER_0_20_77
*1158 FILLER_0_20_85
*1159 FILLER_0_20_89
*1160 FILLER_0_21_113
*1161 FILLER_0_21_123
*1162 FILLER_0_21_166
*1163 FILLER_0_21_190
*1164 FILLER_0_21_194
*1165 FILLER_0_21_211
*1166 FILLER_0_21_221
*1167 FILLER_0_21_230
*1168 FILLER_0_21_244
*1169 FILLER_0_21_252
*1170 FILLER_0_21_277
*1171 FILLER_0_21_281
*1172 FILLER_0_21_307
*1173 FILLER_0_21_319
*1174 FILLER_0_21_331
*1175 FILLER_0_21_335
*1176 FILLER_0_21_337
*1177 FILLER_0_21_349
*1178 FILLER_0_21_35
*1179 FILLER_0_21_47
*1180 FILLER_0_21_57
*1181 FILLER_0_21_69
*1182 FILLER_0_21_81
*1183 FILLER_0_21_93
*1184 FILLER_0_22_112
*1185 FILLER_0_22_124
*1186 FILLER_0_22_136
*1187 FILLER_0_22_141
*1188 FILLER_0_22_197
*1189 FILLER_0_22_209
*1190 FILLER_0_22_215
*1191 FILLER_0_22_232
*1192 FILLER_0_22_249
*1193 FILLER_0_22_261
*1194 FILLER_0_22_294
*1195 FILLER_0_22_3
*1196 FILLER_0_22_306
*1197 FILLER_0_22_309
*1198 FILLER_0_22_321
*1199 FILLER_0_22_333
*1200 FILLER_0_22_345
*1201 FILLER_0_22_42
*1202 FILLER_0_22_48
*1203 FILLER_0_22_76
*1204 FILLER_0_22_85
*1205 FILLER_0_22_91
*1206 FILLER_0_22_95
*1207 FILLER_0_23_138
*1208 FILLER_0_23_146
*1209 FILLER_0_23_15
*1210 FILLER_0_23_151
*1211 FILLER_0_23_163
*1212 FILLER_0_23_167
*1213 FILLER_0_23_169
*1214 FILLER_0_23_177
*1215 FILLER_0_23_184
*1216 FILLER_0_23_196
*1217 FILLER_0_23_208
*1218 FILLER_0_23_222
*1219 FILLER_0_23_225
*1220 FILLER_0_23_26
*1221 FILLER_0_23_278
*1222 FILLER_0_23_281
*1223 FILLER_0_23_285
*1224 FILLER_0_23_3
*1225 FILLER_0_23_302
*1226 FILLER_0_23_314
*1227 FILLER_0_23_326
*1228 FILLER_0_23_334
*1229 FILLER_0_23_337
*1230 FILLER_0_23_349
*1231 FILLER_0_23_39
*1232 FILLER_0_23_50
*1233 FILLER_0_23_95
*1234 FILLER_0_24_104
*1235 FILLER_0_24_110
*1236 FILLER_0_24_122
*1237 FILLER_0_24_134
*1238 FILLER_0_24_141
*1239 FILLER_0_24_162
*1240 FILLER_0_24_170
*1241 FILLER_0_24_174
*1242 FILLER_0_24_182
*1243 FILLER_0_24_195
*1244 FILLER_0_24_197
*1245 FILLER_0_24_209
*1246 FILLER_0_24_247
*1247 FILLER_0_24_251
*1248 FILLER_0_24_264
*1249 FILLER_0_24_277
*1250 FILLER_0_24_297
*1251 FILLER_0_24_3
*1252 FILLER_0_24_305
*1253 FILLER_0_24_309
*1254 FILLER_0_24_321
*1255 FILLER_0_24_333
*1256 FILLER_0_24_345
*1257 FILLER_0_24_40
*1258 FILLER_0_24_46
*1259 FILLER_0_24_79
*1260 FILLER_0_24_83
*1261 FILLER_0_24_96
*1262 FILLER_0_25_111
*1263 FILLER_0_25_113
*1264 FILLER_0_25_125
*1265 FILLER_0_25_155
*1266 FILLER_0_25_169
*1267 FILLER_0_25_202
*1268 FILLER_0_25_214
*1269 FILLER_0_25_222
*1270 FILLER_0_25_250
*1271 FILLER_0_25_262
*1272 FILLER_0_25_3
*1273 FILLER_0_25_305
*1274 FILLER_0_25_317
*1275 FILLER_0_25_329
*1276 FILLER_0_25_335
*1277 FILLER_0_25_337
*1278 FILLER_0_25_349
*1279 FILLER_0_25_46
*1280 FILLER_0_25_75
*1281 FILLER_0_25_87
*1282 FILLER_0_25_9
*1283 FILLER_0_25_99
*1284 FILLER_0_26_11
*1285 FILLER_0_26_117
*1286 FILLER_0_26_134
*1287 FILLER_0_26_157
*1288 FILLER_0_26_202
*1289 FILLER_0_26_210
*1290 FILLER_0_26_232
*1291 FILLER_0_26_244
*1292 FILLER_0_26_253
*1293 FILLER_0_26_265
*1294 FILLER_0_26_273
*1295 FILLER_0_26_29
*1296 FILLER_0_26_296
*1297 FILLER_0_26_3
*1298 FILLER_0_26_309
*1299 FILLER_0_26_321
*1300 FILLER_0_26_339
*1301 FILLER_0_26_39
*1302 FILLER_0_26_47
*1303 FILLER_0_26_64
*1304 FILLER_0_26_73
*1305 FILLER_0_26_81
*1306 FILLER_0_26_85
*1307 FILLER_0_26_97
*1308 FILLER_0_27_15
*1309 FILLER_0_27_156
*1310 FILLER_0_27_190
*1311 FILLER_0_27_202
*1312 FILLER_0_27_214
*1313 FILLER_0_27_218
*1314 FILLER_0_27_223
*1315 FILLER_0_27_225
*1316 FILLER_0_27_231
*1317 FILLER_0_27_237
*1318 FILLER_0_27_25
*1319 FILLER_0_27_262
*1320 FILLER_0_27_281
*1321 FILLER_0_27_299
*1322 FILLER_0_27_3
*1323 FILLER_0_27_311
*1324 FILLER_0_27_340
*1325 FILLER_0_27_348
*1326 FILLER_0_27_35
*1327 FILLER_0_27_47
*1328 FILLER_0_27_55
*1329 FILLER_0_27_80
*1330 FILLER_0_27_88
*1331 FILLER_0_27_92
*1332 FILLER_0_28_101
*1333 FILLER_0_28_105
*1334 FILLER_0_28_117
*1335 FILLER_0_28_127
*1336 FILLER_0_28_139
*1337 FILLER_0_28_15
*1338 FILLER_0_28_152
*1339 FILLER_0_28_158
*1340 FILLER_0_28_185
*1341 FILLER_0_28_193
*1342 FILLER_0_28_197
*1343 FILLER_0_28_206
*1344 FILLER_0_28_216
*1345 FILLER_0_28_228
*1346 FILLER_0_28_247
*1347 FILLER_0_28_251
*1348 FILLER_0_28_253
*1349 FILLER_0_28_266
*1350 FILLER_0_28_27
*1351 FILLER_0_28_278
*1352 FILLER_0_28_29
*1353 FILLER_0_28_3
*1354 FILLER_0_28_302
*1355 FILLER_0_28_309
*1356 FILLER_0_28_329
*1357 FILLER_0_28_41
*1358 FILLER_0_28_53
*1359 FILLER_0_28_65
*1360 FILLER_0_28_73
*1361 FILLER_0_28_80
*1362 FILLER_0_29_102
*1363 FILLER_0_29_110
*1364 FILLER_0_29_113
*1365 FILLER_0_29_129
*1366 FILLER_0_29_141
*1367 FILLER_0_29_153
*1368 FILLER_0_29_158
*1369 FILLER_0_29_166
*1370 FILLER_0_29_169
*1371 FILLER_0_29_181
*1372 FILLER_0_29_215
*1373 FILLER_0_29_223
*1374 FILLER_0_29_225
*1375 FILLER_0_29_231
*1376 FILLER_0_29_25
*1377 FILLER_0_29_269
*1378 FILLER_0_29_278
*1379 FILLER_0_29_29
*1380 FILLER_0_29_298
*1381 FILLER_0_29_3
*1382 FILLER_0_29_304
*1383 FILLER_0_29_321
*1384 FILLER_0_29_342
*1385 FILLER_0_29_35
*1386 FILLER_0_29_350
*1387 FILLER_0_29_39
*1388 FILLER_0_29_57
*1389 FILLER_0_29_65
*1390 FILLER_0_29_73
*1391 FILLER_0_29_83
*1392 FILLER_0_29_92
*1393 FILLER_0_29_96
*1394 FILLER_0_2_109
*1395 FILLER_0_2_121
*1396 FILLER_0_2_133
*1397 FILLER_0_2_139
*1398 FILLER_0_2_141
*1399 FILLER_0_2_15
*1400 FILLER_0_2_153
*1401 FILLER_0_2_165
*1402 FILLER_0_2_177
*1403 FILLER_0_2_189
*1404 FILLER_0_2_195
*1405 FILLER_0_2_197
*1406 FILLER_0_2_209
*1407 FILLER_0_2_221
*1408 FILLER_0_2_233
*1409 FILLER_0_2_245
*1410 FILLER_0_2_251
*1411 FILLER_0_2_253
*1412 FILLER_0_2_265
*1413 FILLER_0_2_27
*1414 FILLER_0_2_277
*1415 FILLER_0_2_289
*1416 FILLER_0_2_29
*1417 FILLER_0_2_3
*1418 FILLER_0_2_301
*1419 FILLER_0_2_307
*1420 FILLER_0_2_309
*1421 FILLER_0_2_321
*1422 FILLER_0_2_333
*1423 FILLER_0_2_345
*1424 FILLER_0_2_41
*1425 FILLER_0_2_53
*1426 FILLER_0_2_65
*1427 FILLER_0_2_77
*1428 FILLER_0_2_83
*1429 FILLER_0_2_85
*1430 FILLER_0_2_97
*1431 FILLER_0_30_137
*1432 FILLER_0_30_141
*1433 FILLER_0_30_149
*1434 FILLER_0_30_166
*1435 FILLER_0_30_173
*1436 FILLER_0_30_185
*1437 FILLER_0_30_193
*1438 FILLER_0_30_219
*1439 FILLER_0_30_231
*1440 FILLER_0_30_242
*1441 FILLER_0_30_251
*1442 FILLER_0_30_270
*1443 FILLER_0_30_282
*1444 FILLER_0_30_299
*1445 FILLER_0_30_3
*1446 FILLER_0_30_307
*1447 FILLER_0_30_309
*1448 FILLER_0_30_317
*1449 FILLER_0_30_325
*1450 FILLER_0_30_336
*1451 FILLER_0_30_348
*1452 FILLER_0_30_37
*1453 FILLER_0_30_49
*1454 FILLER_0_30_72
*1455 FILLER_0_30_85
*1456 FILLER_0_30_93
*1457 FILLER_0_31_118
*1458 FILLER_0_31_143
*1459 FILLER_0_31_172
*1460 FILLER_0_31_184
*1461 FILLER_0_31_220
*1462 FILLER_0_31_225
*1463 FILLER_0_31_237
*1464 FILLER_0_31_243
*1465 FILLER_0_31_26
*1466 FILLER_0_31_267
*1467 FILLER_0_31_275
*1468 FILLER_0_31_3
*1469 FILLER_0_31_303
*1470 FILLER_0_31_315
*1471 FILLER_0_31_319
*1472 FILLER_0_31_34
*1473 FILLER_0_31_340
*1474 FILLER_0_31_348
*1475 FILLER_0_31_38
*1476 FILLER_0_31_72
*1477 FILLER_0_31_94
*1478 FILLER_0_32_101
*1479 FILLER_0_32_107
*1480 FILLER_0_32_115
*1481 FILLER_0_32_133
*1482 FILLER_0_32_139
*1483 FILLER_0_32_141
*1484 FILLER_0_32_15
*1485 FILLER_0_32_168
*1486 FILLER_0_32_180
*1487 FILLER_0_32_192
*1488 FILLER_0_32_214
*1489 FILLER_0_32_226
*1490 FILLER_0_32_234
*1491 FILLER_0_32_25
*1492 FILLER_0_32_251
*1493 FILLER_0_32_261
*1494 FILLER_0_32_273
*1495 FILLER_0_32_3
*1496 FILLER_0_32_300
*1497 FILLER_0_32_309
*1498 FILLER_0_32_313
*1499 FILLER_0_32_344
*1500 FILLER_0_32_35
*1501 FILLER_0_32_350
*1502 FILLER_0_32_47
*1503 FILLER_0_32_65
*1504 FILLER_0_32_75
*1505 FILLER_0_32_82
*1506 FILLER_0_33_110
*1507 FILLER_0_33_120
*1508 FILLER_0_33_132
*1509 FILLER_0_33_140
*1510 FILLER_0_33_146
*1511 FILLER_0_33_163
*1512 FILLER_0_33_167
*1513 FILLER_0_33_169
*1514 FILLER_0_33_181
*1515 FILLER_0_33_213
*1516 FILLER_0_33_221
*1517 FILLER_0_33_225
*1518 FILLER_0_33_262
*1519 FILLER_0_33_274
*1520 FILLER_0_33_281
*1521 FILLER_0_33_292
*1522 FILLER_0_33_3
*1523 FILLER_0_33_346
*1524 FILLER_0_33_350
*1525 FILLER_0_33_42
*1526 FILLER_0_33_50
*1527 FILLER_0_33_57
*1528 FILLER_0_33_64
*1529 FILLER_0_33_70
*1530 FILLER_0_33_78
*1531 FILLER_0_33_9
*1532 FILLER_0_33_91
*1533 FILLER_0_33_98
*1534 FILLER_0_34_107
*1535 FILLER_0_34_126
*1536 FILLER_0_34_141
*1537 FILLER_0_34_155
*1538 FILLER_0_34_163
*1539 FILLER_0_34_169
*1540 FILLER_0_34_181
*1541 FILLER_0_34_189
*1542 FILLER_0_34_195
*1543 FILLER_0_34_202
*1544 FILLER_0_34_211
*1545 FILLER_0_34_220
*1546 FILLER_0_34_229
*1547 FILLER_0_34_241
*1548 FILLER_0_34_245
*1549 FILLER_0_34_261
*1550 FILLER_0_34_273
*1551 FILLER_0_34_298
*1552 FILLER_0_34_3
*1553 FILLER_0_34_306
*1554 FILLER_0_34_309
*1555 FILLER_0_34_321
*1556 FILLER_0_34_327
*1557 FILLER_0_34_338
*1558 FILLER_0_34_350
*1559 FILLER_0_34_49
*1560 FILLER_0_34_55