*SPEF "ieee 1481-1999"
*DESIGN "tt_um_devinatkin_arduino_vga"
*DATE "11:11:11 Fri 11 11, 1111"
*VENDOR "OpenRCX"
*PROGRAM "Parallel Extraction"
*VERSION "1.0"
*DESIGN_FLOW "NAME_SCOPE LOCAL" "PIN_CAP NONE"
*DIVIDER /
*DELIMITER :
*BUS_DELIMITER []
*T_UNIT 1 NS
*C_UNIT 1 PF
*R_UNIT 1 OHM
*L_UNIT 1 HENRY

*NAME_MAP
*3 clk
*4 ena
*5 rst_n
*6 ui_in[0]
*7 ui_in[1]
*8 ui_in[2]
*9 ui_in[3]
*10 ui_in[4]
*11 ui_in[5]
*12 ui_in[6]
*13 ui_in[7]
*14 uio_in[0]
*15 uio_in[1]
*16 uio_in[2]
*17 uio_in[3]
*18 uio_in[4]
*19 uio_in[5]
*20 uio_in[6]
*21 uio_in[7]
*22 net3
*23 net4
*24 net5
*25 net6
*26 net7
*27 net8
*28 net9
*29 net10
*30 net11
*31 net12
*32 net13
*33 net14
*34 net15
*35 net16
*36 net17
*37 net18
*38 uo_out[0]
*39 uo_out[1]
*40 uo_out[2]
*41 uo_out[3]
*42 uo_out[4]
*43 uo_out[5]
*44 uo_out[6]
*45 uo_out[7]
*46 _000_
*47 _001_
*48 _002_
*49 _003_
*50 _004_
*51 _005_
*52 _006_
*53 _007_
*54 _008_
*55 _009_
*56 _010_
*57 _011_
*58 _012_
*59 _013_
*60 _014_
*61 _015_
*62 _016_
*63 _017_
*64 _018_
*65 _019_
*66 _020_
*67 _021_
*68 _022_
*69 _023_
*70 _024_
*71 _025_
*72 _026_
*73 _027_
*74 _028_
*75 _029_
*76 _030_
*77 _031_
*78 _032_
*79 _033_
*80 _034_
*81 _035_
*82 _036_
*83 _037_
*84 _038_
*85 _039_
*86 _040_
*87 _041_
*88 _042_
*89 _043_
*90 _044_
*91 _045_
*92 _046_
*93 _047_
*94 _048_
*95 _049_
*96 _050_
*97 _051_
*98 _052_
*99 _053_
*100 _054_
*101 _055_
*102 _056_
*103 _057_
*104 _058_
*105 _059_
*106 _060_
*107 _061_
*108 _062_
*109 _063_
*110 _064_
*111 _065_
*112 _066_
*113 _067_
*114 _068_
*115 _069_
*116 _070_
*117 _071_
*118 _072_
*119 _073_
*120 _074_
*121 _075_
*122 _076_
*123 _077_
*124 _078_
*125 _079_
*126 _080_
*127 _081_
*128 _082_
*129 _083_
*130 _084_
*131 _085_
*132 _086_
*133 _087_
*134 _088_
*135 _089_
*136 _090_
*137 _091_
*138 _092_
*139 _093_
*140 _094_
*141 _095_
*142 _096_
*143 _097_
*144 _098_
*145 _099_
*146 _100_
*147 _101_
*148 _102_
*149 _103_
*150 _104_
*151 _105_
*152 _106_
*153 _107_
*154 _108_
*155 _109_
*156 _110_
*157 _111_
*158 _112_
*159 _113_
*160 _114_
*161 _115_
*162 _116_
*163 _117_
*164 _118_
*165 _119_
*166 _120_
*167 _121_
*168 _122_
*169 _123_
*170 _124_
*171 _125_
*172 _126_
*173 _127_
*174 _128_
*175 _129_
*176 _130_
*177 _131_
*178 _132_
*179 _133_
*180 _134_
*181 _135_
*182 _136_
*183 _137_
*184 _138_
*185 _139_
*186 _140_
*187 _141_
*188 _142_
*189 _143_
*190 _144_
*191 _145_
*192 _146_
*193 _147_
*194 _148_
*195 _149_
*196 _150_
*197 _151_
*198 _152_
*199 _153_
*200 _154_
*201 _155_
*202 _156_
*203 _157_
*204 _158_
*205 _159_
*206 _160_
*207 _161_
*208 _162_
*209 _163_
*210 _164_
*211 _165_
*212 _166_
*213 _167_
*214 _168_
*215 _169_
*216 _170_
*217 _171_
*218 _172_
*219 _173_
*220 _174_
*221 _175_
*222 _176_
*223 _177_
*224 _178_
*225 _179_
*226 _180_
*227 _181_
*228 _182_
*229 _183_
*230 _184_
*231 _185_
*232 _186_
*233 _187_
*234 _188_
*235 _189_
*236 _190_
*237 _191_
*238 _192_
*239 _193_
*240 _194_
*241 _195_
*242 _196_
*243 _197_
*244 _198_
*245 _199_
*246 _200_
*247 _201_
*248 _202_
*249 _203_
*250 _204_
*251 _205_
*252 _206_
*253 clknet_0_clk
*254 clknet_3_0__leaf_clk
*255 clknet_3_1__leaf_clk
*256 clknet_3_2__leaf_clk
*257 clknet_3_3__leaf_clk
*258 clknet_3_4__leaf_clk
*259 clknet_3_5__leaf_clk
*260 clknet_3_6__leaf_clk
*261 clknet_3_7__leaf_clk
*262 net1
*263 net19
*264 net2
*265 net20
*266 net21
*267 net22
*268 net23
*269 net24
*270 net25
*271 net26
*272 net27
*273 net28
*274 net29
*275 net30
*276 net31
*277 net32
*278 net33
*279 net34
*280 net35
*281 net36
*282 net37
*283 net38
*284 net39
*285 net40
*286 net41
*287 net42
*288 net43
*289 net44
*290 net45
*291 net46
*292 net47
*293 net48
*294 net49
*295 net50
*296 net51
*297 net52
*298 net53
*299 net54
*300 net55
*301 net56
*302 net57
*303 net58
*304 net59
*305 net60
*306 net61
*307 net62
*308 net63
*309 net64
*310 net65
*311 net66
*312 net67
*313 net68
*314 net69
*315 net70
*316 net71
*317 net72
*318 output_control\.blue_pixel\[0\]
*319 output_control\.blue_pixel\[1\]
*320 output_control\.green_pixel\[0\]
*321 output_control\.green_pixel\[1\]
*322 output_control\.red_pixel\[0\]
*323 output_control\.red_pixel\[1\]
*324 rand_generator_mod\.LFSR\[0\]
*325 rand_generator_mod\.LFSR\[10\]
*326 rand_generator_mod\.LFSR\[11\]
*327 rand_generator_mod\.LFSR\[12\]
*328 rand_generator_mod\.LFSR\[13\]
*329 rand_generator_mod\.LFSR\[14\]
*330 rand_generator_mod\.LFSR\[15\]
*331 rand_generator_mod\.LFSR\[16\]
*332 rand_generator_mod\.LFSR\[17\]
*333 rand_generator_mod\.LFSR\[18\]
*334 rand_generator_mod\.LFSR\[19\]
*335 rand_generator_mod\.LFSR\[20\]
*336 rand_generator_mod\.LFSR\[21\]
*337 rand_generator_mod\.LFSR\[22\]
*338 rand_generator_mod\.LFSR\[23\]
*339 rand_generator_mod\.LFSR\[24\]
*340 rand_generator_mod\.LFSR\[25\]
*341 rand_generator_mod\.LFSR\[26\]
*342 rand_generator_mod\.LFSR\[27\]
*343 rand_generator_mod\.LFSR\[28\]
*344 rand_generator_mod\.LFSR\[29\]
*345 rand_generator_mod\.LFSR\[2\]
*346 rand_generator_mod\.LFSR\[30\]
*347 rand_generator_mod\.LFSR\[31\]
*348 rand_generator_mod\.LFSR\[32\]
*349 rand_generator_mod\.LFSR\[33\]
*350 rand_generator_mod\.LFSR\[34\]
*351 rand_generator_mod\.LFSR\[35\]
*352 rand_generator_mod\.LFSR\[36\]
*353 rand_generator_mod\.LFSR\[37\]
*354 rand_generator_mod\.LFSR\[38\]
*355 rand_generator_mod\.LFSR\[39\]
*356 rand_generator_mod\.LFSR\[3\]
*357 rand_generator_mod\.LFSR\[40\]
*358 rand_generator_mod\.LFSR\[41\]
*359 rand_generator_mod\.LFSR\[42\]
*360 rand_generator_mod\.LFSR\[43\]
*361 rand_generator_mod\.LFSR\[44\]
*362 rand_generator_mod\.LFSR\[45\]
*363 rand_generator_mod\.LFSR\[46\]
*364 rand_generator_mod\.LFSR\[47\]
*365 rand_generator_mod\.LFSR\[4\]
*366 rand_generator_mod\.LFSR\[5\]
*367 rand_generator_mod\.LFSR\[7\]
*368 rand_generator_mod\.LFSR\[8\]
*369 rand_generator_mod\.LFSR\[9\]
*370 vga_timing\.h_count\[0\]
*371 vga_timing\.h_count\[1\]
*372 vga_timing\.h_count\[2\]
*373 vga_timing\.h_count\[3\]
*374 vga_timing\.h_count\[4\]
*375 vga_timing\.h_count\[5\]
*376 vga_timing\.h_count\[6\]
*377 vga_timing\.h_count\[7\]
*378 vga_timing\.h_count\[8\]
*379 vga_timing\.h_count\[9\]
*380 vga_timing\.hs
*381 vga_timing\.v_count\[0\]
*382 vga_timing\.v_count\[1\]
*383 vga_timing\.v_count\[2\]
*384 vga_timing\.v_count\[3\]
*385 vga_timing\.v_count\[4\]
*386 vga_timing\.v_count\[5\]
*387 vga_timing\.v_count\[6\]
*388 vga_timing\.v_count\[7\]
*389 vga_timing\.v_count\[8\]
*390 vga_timing\.v_count\[9\]
*391 vga_timing\.vs
*392 vga_timing\.vs_pwm
*393 FILLER_0_0_109
*394 FILLER_0_0_113
*395 FILLER_0_0_125
*396 FILLER_0_0_137
*397 FILLER_0_0_141
*398 FILLER_0_0_15
*399 FILLER_0_0_153
*400 FILLER_0_0_165
*401 FILLER_0_0_169
*402 FILLER_0_0_181
*403 FILLER_0_0_193
*404 FILLER_0_0_197
*405 FILLER_0_0_209
*406 FILLER_0_0_221
*407 FILLER_0_0_225
*408 FILLER_0_0_237
*409 FILLER_0_0_249
*410 FILLER_0_0_253
*411 FILLER_0_0_265
*412 FILLER_0_0_27
*413 FILLER_0_0_277
*414 FILLER_0_0_281
*415 FILLER_0_0_29
*416 FILLER_0_0_293
*417 FILLER_0_0_3
*418 FILLER_0_0_305
*419 FILLER_0_0_309
*420 FILLER_0_0_321
*421 FILLER_0_0_333
*422 FILLER_0_0_337
*423 FILLER_0_0_349
*424 FILLER_0_0_41
*425 FILLER_0_0_53
*426 FILLER_0_0_57
*427 FILLER_0_0_69
*428 FILLER_0_0_81
*429 FILLER_0_0_85
*430 FILLER_0_0_97
*431 FILLER_0_10_109
*432 FILLER_0_10_121
*433 FILLER_0_10_133
*434 FILLER_0_10_139
*435 FILLER_0_10_141
*436 FILLER_0_10_15
*437 FILLER_0_10_153
*438 FILLER_0_10_165
*439 FILLER_0_10_177
*440 FILLER_0_10_189
*441 FILLER_0_10_195
*442 FILLER_0_10_197
*443 FILLER_0_10_209
*444 FILLER_0_10_221
*445 FILLER_0_10_233
*446 FILLER_0_10_245
*447 FILLER_0_10_251
*448 FILLER_0_10_253
*449 FILLER_0_10_265
*450 FILLER_0_10_27
*451 FILLER_0_10_277
*452 FILLER_0_10_289
*453 FILLER_0_10_29
*454 FILLER_0_10_3
*455 FILLER_0_10_301
*456 FILLER_0_10_307
*457 FILLER_0_10_309
*458 FILLER_0_10_321
*459 FILLER_0_10_333
*460 FILLER_0_10_345
*461 FILLER_0_10_41
*462 FILLER_0_10_53
*463 FILLER_0_10_65
*464 FILLER_0_10_77
*465 FILLER_0_10_83
*466 FILLER_0_10_85
*467 FILLER_0_10_97
*468 FILLER_0_11_105
*469 FILLER_0_11_111
*470 FILLER_0_11_113
*471 FILLER_0_11_125
*472 FILLER_0_11_137
*473 FILLER_0_11_149
*474 FILLER_0_11_15
*475 FILLER_0_11_161
*476 FILLER_0_11_167
*477 FILLER_0_11_169
*478 FILLER_0_11_181
*479 FILLER_0_11_193
*480 FILLER_0_11_205
*481 FILLER_0_11_217
*482 FILLER_0_11_223
*483 FILLER_0_11_225
*484 FILLER_0_11_237
*485 FILLER_0_11_249
*486 FILLER_0_11_261
*487 FILLER_0_11_27
*488 FILLER_0_11_273
*489 FILLER_0_11_279
*490 FILLER_0_11_281
*491 FILLER_0_11_293
*492 FILLER_0_11_3
*493 FILLER_0_11_305
*494 FILLER_0_11_317
*495 FILLER_0_11_329
*496 FILLER_0_11_335
*497 FILLER_0_11_337
*498 FILLER_0_11_349
*499 FILLER_0_11_39
*500 FILLER_0_11_51
*501 FILLER_0_11_55
*502 FILLER_0_11_57
*503 FILLER_0_11_69
*504 FILLER_0_11_81
*505 FILLER_0_11_93
*506 FILLER_0_12_109
*507 FILLER_0_12_121
*508 FILLER_0_12_133
*509 FILLER_0_12_139
*510 FILLER_0_12_141
*511 FILLER_0_12_15
*512 FILLER_0_12_153
*513 FILLER_0_12_165
*514 FILLER_0_12_177
*515 FILLER_0_12_189
*516 FILLER_0_12_195
*517 FILLER_0_12_197
*518 FILLER_0_12_209
*519 FILLER_0_12_221
*520 FILLER_0_12_233
*521 FILLER_0_12_245
*522 FILLER_0_12_251
*523 FILLER_0_12_253
*524 FILLER_0_12_265
*525 FILLER_0_12_27
*526 FILLER_0_12_277
*527 FILLER_0_12_289
*528 FILLER_0_12_29
*529 FILLER_0_12_3
*530 FILLER_0_12_301
*531 FILLER_0_12_307
*532 FILLER_0_12_309
*533 FILLER_0_12_321
*534 FILLER_0_12_333
*535 FILLER_0_12_345
*536 FILLER_0_12_41
*537 FILLER_0_12_53
*538 FILLER_0_12_65
*539 FILLER_0_12_77
*540 FILLER_0_12_83
*541 FILLER_0_12_85
*542 FILLER_0_12_97
*543 FILLER_0_13_105
*544 FILLER_0_13_111
*545 FILLER_0_13_113
*546 FILLER_0_13_125
*547 FILLER_0_13_137
*548 FILLER_0_13_149
*549 FILLER_0_13_15
*550 FILLER_0_13_161
*551 FILLER_0_13_167
*552 FILLER_0_13_169
*553 FILLER_0_13_181
*554 FILLER_0_13_193
*555 FILLER_0_13_205
*556 FILLER_0_13_217
*557 FILLER_0_13_223
*558 FILLER_0_13_225
*559 FILLER_0_13_237
*560 FILLER_0_13_249
*561 FILLER_0_13_261
*562 FILLER_0_13_27
*563 FILLER_0_13_273
*564 FILLER_0_13_279
*565 FILLER_0_13_281
*566 FILLER_0_13_293
*567 FILLER_0_13_3
*568 FILLER_0_13_305
*569 FILLER_0_13_317
*570 FILLER_0_13_329
*571 FILLER_0_13_335
*572 FILLER_0_13_337
*573 FILLER_0_13_349
*574 FILLER_0_13_39
*575 FILLER_0_13_51
*576 FILLER_0_13_55
*577 FILLER_0_13_57
*578 FILLER_0_13_69
*579 FILLER_0_13_81
*580 FILLER_0_13_93
*581 FILLER_0_14_109
*582 FILLER_0_14_121
*583 FILLER_0_14_133
*584 FILLER_0_14_139
*585 FILLER_0_14_141
*586 FILLER_0_14_15
*587 FILLER_0_14_153
*588 FILLER_0_14_165
*589 FILLER_0_14_177
*590 FILLER_0_14_189
*591 FILLER_0_14_195
*592 FILLER_0_14_197
*593 FILLER_0_14_209
*594 FILLER_0_14_221
*595 FILLER_0_14_233
*596 FILLER_0_14_245
*597 FILLER_0_14_251
*598 FILLER_0_14_253
*599 FILLER_0_14_265
*600 FILLER_0_14_27
*601 FILLER_0_14_277
*602 FILLER_0_14_289
*603 FILLER_0_14_29
*604 FILLER_0_14_3
*605 FILLER_0_14_301
*606 FILLER_0_14_307
*607 FILLER_0_14_309
*608 FILLER_0_14_321
*609 FILLER_0_14_333
*610 FILLER_0_14_345
*611 FILLER_0_14_41
*612 FILLER_0_14_53
*613 FILLER_0_14_65
*614 FILLER_0_14_77
*615 FILLER_0_14_83
*616 FILLER_0_14_85
*617 FILLER_0_14_97
*618 FILLER_0_15_105
*619 FILLER_0_15_111
*620 FILLER_0_15_113
*621 FILLER_0_15_125
*622 FILLER_0_15_137
*623 FILLER_0_15_149
*624 FILLER_0_15_15
*625 FILLER_0_15_161
*626 FILLER_0_15_167
*627 FILLER_0_15_169
*628 FILLER_0_15_181
*629 FILLER_0_15_193
*630 FILLER_0_15_205
*631 FILLER_0_15_217
*632 FILLER_0_15_223
*633 FILLER_0_15_225
*634 FILLER_0_15_237
*635 FILLER_0_15_249
*636 FILLER_0_15_261
*637 FILLER_0_15_27
*638 FILLER_0_15_273
*639 FILLER_0_15_279
*640 FILLER_0_15_281
*641 FILLER_0_15_293
*642 FILLER_0_15_3
*643 FILLER_0_15_305
*644 FILLER_0_15_317
*645 FILLER_0_15_329
*646 FILLER_0_15_335
*647 FILLER_0_15_337
*648 FILLER_0_15_349
*649 FILLER_0_15_39
*650 FILLER_0_15_51
*651 FILLER_0_15_55
*652 FILLER_0_15_57
*653 FILLER_0_15_69
*654 FILLER_0_15_81
*655 FILLER_0_15_93
*656 FILLER_0_16_109
*657 FILLER_0_16_121
*658 FILLER_0_16_133
*659 FILLER_0_16_139
*660 FILLER_0_16_141
*661 FILLER_0_16_15
*662 FILLER_0_16_153
*663 FILLER_0_16_165
*664 FILLER_0_16_177
*665 FILLER_0_16_189
*666 FILLER_0_16_195
*667 FILLER_0_16_197
*668 FILLER_0_16_209
*669 FILLER_0_16_221
*670 FILLER_0_16_233
*671 FILLER_0_16_245
*672 FILLER_0_16_251
*673 FILLER_0_16_253
*674 FILLER_0_16_265
*675 FILLER_0_16_27
*676 FILLER_0_16_277
*677 FILLER_0_16_289
*678 FILLER_0_16_29
*679 FILLER_0_16_3
*680 FILLER_0_16_301
*681 FILLER_0_16_307
*682 FILLER_0_16_309
*683 FILLER_0_16_321
*684 FILLER_0_16_333
*685 FILLER_0_16_345
*686 FILLER_0_16_41
*687 FILLER_0_16_53
*688 FILLER_0_16_65
*689 FILLER_0_16_77
*690 FILLER_0_16_83
*691 FILLER_0_16_85
*692 FILLER_0_16_97
*693 FILLER_0_17_105
*694 FILLER_0_17_111
*695 FILLER_0_17_113
*696 FILLER_0_17_125
*697 FILLER_0_17_137
*698 FILLER_0_17_149
*699 FILLER_0_17_15
*700 FILLER_0_17_161
*701 FILLER_0_17_167
*702 FILLER_0_17_169
*703 FILLER_0_17_181
*704 FILLER_0_17_193
*705 FILLER_0_17_205
*706 FILLER_0_17_217
*707 FILLER_0_17_223
*708 FILLER_0_17_225
*709 FILLER_0_17_237
*710 FILLER_0_17_249
*711 FILLER_0_17_261
*712 FILLER_0_17_27
*713 FILLER_0_17_273
*714 FILLER_0_17_279
*715 FILLER_0_17_281
*716 FILLER_0_17_293
*717 FILLER_0_17_3
*718 FILLER_0_17_305
*719 FILLER_0_17_317
*720 FILLER_0_17_329
*721 FILLER_0_17_335
*722 FILLER_0_17_337
*723 FILLER_0_17_349
*724 FILLER_0_17_39
*725 FILLER_0_17_51
*726 FILLER_0_17_55
*727 FILLER_0_17_57
*728 FILLER_0_17_69
*729 FILLER_0_17_81
*730 FILLER_0_17_93
*731 FILLER_0_18_109
*732 FILLER_0_18_121
*733 FILLER_0_18_133
*734 FILLER_0_18_139
*735 FILLER_0_18_141
*736 FILLER_0_18_15
*737 FILLER_0_18_153
*738 FILLER_0_18_165
*739 FILLER_0_18_177
*740 FILLER_0_18_189
*741 FILLER_0_18_195
*742 FILLER_0_18_197
*743 FILLER_0_18_209
*744 FILLER_0_18_221
*745 FILLER_0_18_233
*746 FILLER_0_18_245
*747 FILLER_0_18_251
*748 FILLER_0_18_253
*749 FILLER_0_18_265
*750 FILLER_0_18_27
*751 FILLER_0_18_277
*752 FILLER_0_18_289
*753 FILLER_0_18_29
*754 FILLER_0_18_3
*755 FILLER_0_18_301
*756 FILLER_0_18_307
*757 FILLER_0_18_309
*758 FILLER_0_18_321
*759 FILLER_0_18_333
*760 FILLER_0_18_345
*761 FILLER_0_18_41
*762 FILLER_0_18_53
*763 FILLER_0_18_65
*764 FILLER_0_18_77
*765 FILLER_0_18_83
*766 FILLER_0_18_85
*767 FILLER_0_18_97
*768 FILLER_0_19_105
*769 FILLER_0_19_111
*770 FILLER_0_19_113
*771 FILLER_0_19_125
*772 FILLER_0_19_137
*773 FILLER_0_19_149
*774 FILLER_0_19_15
*775 FILLER_0_19_161
*776 FILLER_0_19_167
*777 FILLER_0_19_169
*778 FILLER_0_19_181
*779 FILLER_0_19_193
*780 FILLER_0_19_205
*781 FILLER_0_19_217
*782 FILLER_0_19_223
*783 FILLER_0_19_225
*784 FILLER_0_19_237
*785 FILLER_0_19_249
*786 FILLER_0_19_261
*787 FILLER_0_19_27
*788 FILLER_0_19_273
*789 FILLER_0_19_279
*790 FILLER_0_19_281
*791 FILLER_0_19_293
*792 FILLER_0_19_3
*793 FILLER_0_19_305
*794 FILLER_0_19_317
*795 FILLER_0_19_329
*796 FILLER_0_19_335
*797 FILLER_0_19_337
*798 FILLER_0_19_349
*799 FILLER_0_19_39
*800 FILLER_0_19_51
*801 FILLER_0_19_55
*802 FILLER_0_19_57
*803 FILLER_0_19_69
*804 FILLER_0_19_81
*805 FILLER_0_19_93
*806 FILLER_0_1_105
*807 FILLER_0_1_111
*808 FILLER_0_1_113
*809 FILLER_0_1_125
*810 FILLER_0_1_137
*811 FILLER_0_1_149
*812 FILLER_0_1_15
*813 FILLER_0_1_161
*814 FILLER_0_1_167
*815 FILLER_0_1_169
*816 FILLER_0_1_181
*817 FILLER_0_1_193
*818 FILLER_0_1_205
*819 FILLER_0_1_217
*820 FILLER_0_1_223
*821 FILLER_0_1_225
*822 FILLER_0_1_237
*823 FILLER_0_1_249
*824 FILLER_0_1_261
*825 FILLER_0_1_27
*826 FILLER_0_1_273
*827 FILLER_0_1_279
*828 FILLER_0_1_281
*829 FILLER_0_1_293
*830 FILLER_0_1_3
*831 FILLER_0_1_305
*832 FILLER_0_1_317
*833 FILLER_0_1_329
*834 FILLER_0_1_335
*835 FILLER_0_1_337
*836 FILLER_0_1_349
*837 FILLER_0_1_39
*838 FILLER_0_1_51
*839 FILLER_0_1_55
*840 FILLER_0_1_57
*841 FILLER_0_1_69
*842 FILLER_0_1_81
*843 FILLER_0_1_93
*844 FILLER_0_20_109
*845 FILLER_0_20_121
*846 FILLER_0_20_133
*847 FILLER_0_20_139
*848 FILLER_0_20_141
*849 FILLER_0_20_15
*850 FILLER_0_20_153
*851 FILLER_0_20_165
*852 FILLER_0_20_177
*853 FILLER_0_20_189
*854 FILLER_0_20_195
*855 FILLER_0_20_197
*856 FILLER_0_20_209
*857 FILLER_0_20_221
*858 FILLER_0_20_233
*859 FILLER_0_20_245
*860 FILLER_0_20_251
*861 FILLER_0_20_253
*862 FILLER_0_20_265
*863 FILLER_0_20_27
*864 FILLER_0_20_277
*865 FILLER_0_20_289
*866 FILLER_0_20_29
*867 FILLER_0_20_3
*868 FILLER_0_20_301
*869 FILLER_0_20_307
*870 FILLER_0_20_309
*871 FILLER_0_20_321
*872 FILLER_0_20_333
*873 FILLER_0_20_345
*874 FILLER_0_20_41
*875 FILLER_0_20_53
*876 FILLER_0_20_65
*877 FILLER_0_20_77
*878 FILLER_0_20_83
*879 FILLER_0_20_85
*880 FILLER_0_20_97
*881 FILLER_0_21_105
*882 FILLER_0_21_111
*883 FILLER_0_21_113
*884 FILLER_0_21_125
*885 FILLER_0_21_137
*886 FILLER_0_21_149
*887 FILLER_0_21_15
*888 FILLER_0_21_161
*889 FILLER_0_21_167
*890 FILLER_0_21_169
*891 FILLER_0_21_181
*892 FILLER_0_21_193
*893 FILLER_0_21_205
*894 FILLER_0_21_217
*895 FILLER_0_21_223
*896 FILLER_0_21_225
*897 FILLER_0_21_237
*898 FILLER_0_21_249
*899 FILLER_0_21_261
*900 FILLER_0_21_27
*901 FILLER_0_21_273
*902 FILLER_0_21_279
*903 FILLER_0_21_281
*904 FILLER_0_21_293
*905 FILLER_0_21_3
*906 FILLER_0_21_305
*907 FILLER_0_21_317
*908 FILLER_0_21_329
*909 FILLER_0_21_335
*910 FILLER_0_21_337
*911 FILLER_0_21_349
*912 FILLER_0_21_39
*913 FILLER_0_21_51
*914 FILLER_0_21_55
*915 FILLER_0_21_57
*916 FILLER_0_21_69
*917 FILLER_0_21_81
*918 FILLER_0_21_93
*919 FILLER_0_22_109
*920 FILLER_0_22_121
*921 FILLER_0_22_133
*922 FILLER_0_22_139
*923 FILLER_0_22_141
*924 FILLER_0_22_15
*925 FILLER_0_22_153
*926 FILLER_0_22_165
*927 FILLER_0_22_177
*928 FILLER_0_22_189
*929 FILLER_0_22_195
*930 FILLER_0_22_197
*931 FILLER_0_22_209
*932 FILLER_0_22_221
*933 FILLER_0_22_233
*934 FILLER_0_22_245
*935 FILLER_0_22_251
*936 FILLER_0_22_253
*937 FILLER_0_22_265
*938 FILLER_0_22_27
*939 FILLER_0_22_277
*940 FILLER_0_22_289
*941 FILLER_0_22_29
*942 FILLER_0_22_3
*943 FILLER_0_22_301
*944 FILLER_0_22_307
*945 FILLER_0_22_309
*946 FILLER_0_22_321
*947 FILLER_0_22_333
*948 FILLER_0_22_345
*949 FILLER_0_22_41
*950 FILLER_0_22_53
*951 FILLER_0_22_65
*952 FILLER_0_22_77
*953 FILLER_0_22_83
*954 FILLER_0_22_85
*955 FILLER_0_22_97
*956 FILLER_0_23_105
*957 FILLER_0_23_111
*958 FILLER_0_23_113
*959 FILLER_0_23_125
*960 FILLER_0_23_137
*961 FILLER_0_23_149
*962 FILLER_0_23_15
*963 FILLER_0_23_161
*964 FILLER_0_23_167
*965 FILLER_0_23_169
*966 FILLER_0_23_181
*967 FILLER_0_23_193
*968 FILLER_0_23_205
*969 FILLER_0_23_217
*970 FILLER_0_23_223
*971 FILLER_0_23_225
*972 FILLER_0_23_237
*973 FILLER_0_23_249
*974 FILLER_0_23_261
*975 FILLER_0_23_27
*976 FILLER_0_23_273
*977 FILLER_0_23_279
*978 FILLER_0_23_281
*979 FILLER_0_23_293
*980 FILLER_0_23_3
*981 FILLER_0_23_305
*982 FILLER_0_23_317
*983 FILLER_0_23_329
*984 FILLER_0_23_335
*985 FILLER_0_23_337
*986 FILLER_0_23_349
*987 FILLER_0_23_39
*988 FILLER_0_23_51
*989 FILLER_0_23_55
*990 FILLER_0_23_57
*991 FILLER_0_23_69
*992 FILLER_0_23_81
*993 FILLER_0_23_93
*994 FILLER_0_24_109
*995 FILLER_0_24_121
*996 FILLER_0_24_133
*997 FILLER_0_24_139
*998 FILLER_0_24_141
*999 FILLER_0_24_15
*1000 FILLER_0_24_153
*1001 FILLER_0_24_165
*1002 FILLER_0_24_177
*1003 FILLER_0_24_189
*1004 FILLER_0_24_195
*1005 FILLER_0_24_197
*1006 FILLER_0_24_209
*1007 FILLER_0_24_221
*1008 FILLER_0_24_233
*1009 FILLER_0_24_245
*1010 FILLER_0_24_251
*1011 FILLER_0_24_253
*1012 FILLER_0_24_265
*1013 FILLER_0_24_27
*1014 FILLER_0_24_277
*1015 FILLER_0_24_289
*1016 FILLER_0_24_29
*1017 FILLER_0_24_3
*1018 FILLER_0_24_301
*1019 FILLER_0_24_307
*1020 FILLER_0_24_309
*1021 FILLER_0_24_321
*1022 FILLER_0_24_333
*1023 FILLER_0_24_345
*1024 FILLER_0_24_41
*1025 FILLER_0_24_53
*1026 FILLER_0_24_65
*1027 FILLER_0_24_77
*1028 FILLER_0_24_83
*1029 FILLER_0_24_85
*1030 FILLER_0_24_97
*1031 FILLER_0_25_105
*1032 FILLER_0_25_111
*1033 FILLER_0_25_113
*1034 FILLER_0_25_125
*1035 FILLER_0_25_137
*1036 FILLER_0_25_149
*1037 FILLER_0_25_15
*1038 FILLER_0_25_161
*1039 FILLER_0_25_167
*1040 FILLER_0_25_169
*1041 FILLER_0_25_181
*1042 FILLER_0_25_193
*1043 FILLER_0_25_205
*1044 FILLER_0_25_217
*1045 FILLER_0_25_223
*1046 FILLER_0_25_225
*1047 FILLER_0_25_237
*1048 FILLER_0_25_249
*1049 FILLER_0_25_261
*1050 FILLER_0_25_27
*1051 FILLER_0_25_273
*1052 FILLER_0_25_279
*1053 FILLER_0_25_281
*1054 FILLER_0_25_293
*1055 FILLER_0_25_3
*1056 FILLER_0_25_305
*1057 FILLER_0_25_317
*1058 FILLER_0_25_329
*1059 FILLER_0_25_335
*1060 FILLER_0_25_337
*1061 FILLER_0_25_349
*1062 FILLER_0_25_39
*1063 FILLER_0_25_51
*1064 FILLER_0_25_55
*1065 FILLER_0_25_57
*1066 FILLER_0_25_69
*1067 FILLER_0_25_81
*1068 FILLER_0_25_93
*1069 FILLER_0_26_109
*1070 FILLER_0_26_121
*1071 FILLER_0_26_133
*1072 FILLER_0_26_139
*1073 FILLER_0_26_141
*1074 FILLER_0_26_15
*1075 FILLER_0_26_153
*1076 FILLER_0_26_165
*1077 FILLER_0_26_177
*1078 FILLER_0_26_189
*1079 FILLER_0_26_195
*1080 FILLER_0_26_197
*1081 FILLER_0_26_209
*1082 FILLER_0_26_221
*1083 FILLER_0_26_233
*1084 FILLER_0_26_245
*1085 FILLER_0_26_251
*1086 FILLER_0_26_253
*1087 FILLER_0_26_265
*1088 FILLER_0_26_27
*1089 FILLER_0_26_277
*1090 FILLER_0_26_289
*1091 FILLER_0_26_29
*1092 FILLER_0_26_3
*1093 FILLER_0_26_301
*1094 FILLER_0_26_307
*1095 FILLER_0_26_309
*1096 FILLER_0_26_321
*1097 FILLER_0_26_333
*1098 FILLER_0_26_345
*1099 FILLER_0_26_41
*1100 FILLER_0_26_53
*1101 FILLER_0_26_65
*1102 FILLER_0_26_77
*1103 FILLER_0_26_83
*1104 FILLER_0_26_85
*1105 FILLER_0_26_97
*1106 FILLER_0_27_105
*1107 FILLER_0_27_111
*1108 FILLER_0_27_113
*1109 FILLER_0_27_125
*1110 FILLER_0_27_137
*1111 FILLER_0_27_149
*1112 FILLER_0_27_15
*1113 FILLER_0_27_161
*1114 FILLER_0_27_167
*1115 FILLER_0_27_169
*1116 FILLER_0_27_181
*1117 FILLER_0_27_193
*1118 FILLER_0_27_205
*1119 FILLER_0_27_217
*1120 FILLER_0_27_223
*1121 FILLER_0_27_225
*1122 FILLER_0_27_237
*1123 FILLER_0_27_249
*1124 FILLER_0_27_261
*1125 FILLER_0_27_27
*1126 FILLER_0_27_273
*1127 FILLER_0_27_279
*1128 FILLER_0_27_281
*1129 FILLER_0_27_293
*1130 FILLER_0_27_3
*1131 FILLER_0_27_305
*1132 FILLER_0_27_317
*1133 FILLER_0_27_329
*1134 FILLER_0_27_335
*1135 FILLER_0_27_337
*1136 FILLER_0_27_349
*1137 FILLER_0_27_39
*1138 FILLER_0_27_51
*1139 FILLER_0_27_55
*1140 FILLER_0_27_57
*1141 FILLER_0_27_69
*1142 FILLER_0_27_81
*1143 FILLER_0_27_93
*1144 FILLER_0_28_109
*1145 FILLER_0_28_121
*1146 FILLER_0_28_133
*1147 FILLER_0_28_139
*1148 FILLER_0_28_141
*1149 FILLER_0_28_15
*1150 FILLER_0_28_153
*1151 FILLER_0_28_165
*1152 FILLER_0_28_177
*1153 FILLER_0_28_189
*1154 FILLER_0_28_195
*1155 FILLER_0_28_197
*1156 FILLER_0_28_209
*1157 FILLER_0_28_221
*1158 FILLER_0_28_233
*1159 FILLER_0_28_245
*1160 FILLER_0_28_251
*1161 FILLER_0_28_253
*1162 FILLER_0_28_265
*1163 FILLER_0_28_27
*1164 FILLER_0_28_277
*1165 FILLER_0_28_289
*1166 FILLER_0_28_29
*1167 FILLER_0_28_3
*1168 FILLER_0_28_301
*1169 FILLER_0_28_307
*1170 FILLER_0_28_309
*1171 FILLER_0_28_321
*1172 FILLER_0_28_333
*1173 FILLER_0_28_345
*1174 FILLER_0_28_41
*1175 FILLER_0_28_53
*1176 FILLER_0_28_65
*1177 FILLER_0_28_77
*1178 FILLER_0_28_83
*1179 FILLER_0_28_85
*1180 FILLER_0_28_97
*1181 FILLER_0_29_105
*1182 FILLER_0_29_111
*1183 FILLER_0_29_113
*1184 FILLER_0_29_125
*1185 FILLER_0_29_137
*1186 FILLER_0_29_149
*1187 FILLER_0_29_15
*1188 FILLER_0_29_161
*1189 FILLER_0_29_167
*1190 FILLER_0_29_169
*1191 FILLER_0_29_181
*1192 FILLER_0_29_193
*1193 FILLER_0_29_205
*1194 FILLER_0_29_217
*1195 FILLER_0_29_223
*1196 FILLER_0_29_225
*1197 FILLER_0_29_237
*1198 FILLER_0_29_249
*1199 FILLER_0_29_261
*1200 FILLER_0_29_27
*1201 FILLER_0_29_273
*1202 FILLER_0_29_279
*1203 FILLER_0_29_281
*1204 FILLER_0_29_293
*1205 FILLER_0_29_3
*1206 FILLER_0_29_305
*1207 FILLER_0_29_317
*1208 FILLER_0_29_329
*1209 FILLER_0_29_335
*1210 FILLER_0_29_337
*1211 FILLER_0_29_349
*1212 FILLER_0_29_39
*1213 FILLER_0_29_51
*1214 FILLER_0_29_55
*1215 FILLER_0_29_57
*1216 FILLER_0_29_69
*1217 FILLER_0_29_81
*1218 FILLER_0_29_93
*1219 FILLER_0_2_109
*1220 FILLER_0_2_121
*1221 FILLER_0_2_133
*1222 FILLER_0_2_139
*1223 FILLER_0_2_141
*1224 FILLER_0_2_15
*1225 FILLER_0_2_153
*1226 FILLER_0_2_165
*1227 FILLER_0_2_177
*1228 FILLER_0_2_189
*1229 FILLER_0_2_195
*1230 FILLER_0_2_197
*1231 FILLER_0_2_209
*1232 FILLER_0_2_221
*1233 FILLER_0_2_233
*1234 FILLER_0_2_245
*1235 FILLER_0_2_251
*1236 FILLER_0_2_253
*1237 FILLER_0_2_265
*1238 FILLER_0_2_27
*1239 FILLER_0_2_277
*1240 FILLER_0_2_289
*1241 FILLER_0_2_29
*1242 FILLER_0_2_3
*1243 FILLER_0_2_301
*1244 FILLER_0_2_307
*1245 FILLER_0_2_309
*1246 FILLER_0_2_321
*1247 FILLER_0_2_333
*1248 FILLER_0_2_345
*1249 FILLER_0_2_41
*1250 FILLER_0_2_53
*1251 FILLER_0_2_65
*1252 FILLER_0_2_77
*1253 FILLER_0_2_83
*1254 FILLER_0_2_85
*1255 FILLER_0_2_97
*1256 FILLER_0_30_109
*1257 FILLER_0_30_121
*1258 FILLER_0_30_133
*1259 FILLER_0_30_139
*1260 FILLER_0_30_141
*1261 FILLER_0_30_15
*1262 FILLER_0_30_153
*1263 FILLER_0_30_165
*1264 FILLER_0_30_177
*1265 FILLER_0_30_189
*1266 FILLER_0_30_195
*1267 FILLER_0_30_197
*1268 FILLER_0_30_209
*1269 FILLER_0_30_221
*1270 FILLER_0_30_233
*1271 FILLER_0_30_245
*1272 FILLER_0_30_251
*1273 FILLER_0_30_253
*1274 FILLER_0_30_265
*1275 FILLER_0_30_27
*1276 FILLER_0_30_277
*1277 FILLER_0_30_289
*1278 FILLER_0_30_29
*1279 FILLER_0_30_3
*1280 FILLER_0_30_301
*1281 FILLER_0_30_307
*1282 FILLER_0_30_309
*1283 FILLER_0_30_321
*1284 FILLER_0_30_333
*1285 FILLER_0_30_345
*1286 FILLER_0_30_41
*1287 FILLER_0_30_53
*1288 FILLER_0_30_65
*1289 FILLER_0_30_77
*1290 FILLER_0_30_83
*1291 FILLER_0_30_85
*1292 FILLER_0_30_97
*1293 FILLER_0_31_105
*1294 FILLER_0_31_111
*1295 FILLER_0_31_113
*1296 FILLER_0_31_125
*1297 FILLER_0_31_137
*1298 FILLER_0_31_149
*1299 FILLER_0_31_15
*1300 FILLER_0_31_161
*1301 FILLER_0_31_167
*1302 FILLER_0_31_169
*1303 FILLER_0_31_181
*1304 FILLER_0_31_193
*1305 FILLER_0_31_205
*1306 FILLER_0_31_217
*1307 FILLER_0_31_223
*1308 FILLER_0_31_225
*1309 FILLER_0_31_237
*1310 FILLER_0_31_249
*1311 FILLER_0_31_261
*1312 FILLER_0_31_27
*1313 FILLER_0_31_273
*1314 FILLER_0_31_279
*1315 FILLER_0_31_281
*1316 FILLER_0_31_293
*1317 FILLER_0_31_3
*1318 FILLER_0_31_305
*1319 FILLER_0_31_317
*1320 FILLER_0_31_329
*1321 FILLER_0_31_335
*1322 FILLER_0_31_337
*1323 FILLER_0_31_349
*1324 FILLER_0_31_39
*1325 FILLER_0_31_51
*1326 FILLER_0_31_55
*1327 FILLER_0_31_57
*1328 FILLER_0_31_69
*1329 FILLER_0_31_81
*1330 FILLER_0_31_93
*1331 FILLER_0_32_109
*1332 FILLER_0_32_121
*1333 FILLER_0_32_133
*1334 FILLER_0_32_139
*1335 FILLER_0_32_141
*1336 FILLER_0_32_15
*1337 FILLER_0_32_153
*1338 FILLER_0_32_165
*1339 FILLER_0_32_177
*1340 FILLER_0_32_189
*1341 FILLER_0_32_195
*1342 FILLER_0_32_197
*1343 FILLER_0_32_209
*1344 FILLER_0_32_221
*1345 FILLER_0_32_233
*1346 FILLER_0_32_245
*1347 FILLER_0_32_251
*1348 FILLER_0_32_253
*1349 FILLER_0_32_265
*1350 FILLER_0_32_27
*1351 FILLER_0_32_277
*1352 FILLER_0_32_289
*1353 FILLER_0_32_29
*1354 FILLER_0_32_3
*1355 FILLER_0_32_301
*1356 FILLER_0_32_307
*1357 FILLER_0_32_309
*1358 FILLER_0_32_321
*1359 FILLER_0_32_333
*1360 FILLER_0_32_345
*1361 FILLER_0_32_41
*1362 FILLER_0_32_53
*1363 FILLER_0_32_65
*1364 FILLER_0_32_77
*1365 FILLER_0_32_83
*1366 FILLER_0_32_85
*1367 FILLER_0_32_97
*1368 FILLER_0_33_105
*1369 FILLER_0_33_111
*1370 FILLER_0_33_113
*1371 FILLER_0_33_125
*1372 FILLER_0_33_137
*1373 FILLER_0_33_149
*1374 FILLER_0_33_15
*1375 FILLER_0_33_161
*1376 FILLER_0_33_167
*1377 FILLER_0_33_169
*1378 FILLER_0_33_181
*1379 FILLER_0_33_193
*1380 FILLER_0_33_205
*1381 FILLER_0_33_217
*1382 FILLER_0_33_223
*1383 FILLER_0_33_225
*1384 FILLER_0_33_237
*1385 FILLER_0_33_249
*1386 FILLER_0_33_261
*1387 FILLER_0_33_27
*1388 FILLER_0_33_273
*1389 FILLER_0_33_279
*1390 FILLER_0_33_281
*1391 FILLER_0_33_293
*1392 FILLER_0_33_3
*1393 FILLER_0_33_305
*1394 FILLER_0_33_317
*1395 FILLER_0_33_329
*1396 FILLER_0_33_335
*1397 FILLER_0_33_337
*1398 FILLER_0_33_349
*1399 FILLER_0_33_39
*1400 FILLER_0_33_51
*1401 FILLER_0_33_55
*1402 FILLER_0_33_57
*1403 FILLER_0_33_69
*1404 FILLER_0_33_81
*1405 FILLER_0_33_93
*1406 FILLER_0_34_109
*1407 FILLER_0_34_121
*1408 FILLER_0_34_133
*1409 FILLER_0_34_139
*1410 FILLER_0_34_141
*1411 FILLER_0_34_15
*1412 FILLER_0_34_153
*1413 FILLER_0_34_165
*1414 FILLER_0_34_177
*1415 FILLER_0_34_189
*1416 FILLER_0_34_195
*1417 FILLER_0_34_197
*1418 FILLER_0_34_209
*1419 FILLER_0_34_221
*1420 FILLER_0_34_233
*1421 FILLER_0_34_245
*1422 FILLER_0_34_251
*1423 FILLER_0_34_253
*1424 FILLER_0_34_265
*1425 FILLER_0_34_27
*1426 FILLER_0_34_277
*1427 FILLER_0_34_289
*1428 FILLER_0_34_29
*1429 FILLER_0_34_3
*1430 FILLER_0_34_301
*1431 FILLER_0_34_307
*1432 FILLER_0_34_309
*1433 FILLER_0_34_321
*1434 FILLER_0_34_333
*1435 FILLER_0_34_345
*1436 FILLER_0_34_41
*1437 FILLER_0_34_53
*1438 FILLER_0_34_65
*1439 FILLER_0_34_77
*1440 FILLER_0_34_83
*1441 FILLER_0_34_85
*1442 FILLER_0_34_97
*1443 FILLER_0_35_105
*1444 FILLER_0_35_111
*1445 FILLER_0_35_113
*1446 FILLER_0_35_125
*1447 FILLER_0_35_137
*1448 FILLER_0_35_149
*1449 FILLER_0_35_15
*1450 FILLER_0_35_161
*1451 FILLER_0_35_167
*1452 FILLER_0_35_169
*1453 FILLER_0_35_181
*1454 FILLER_0_35_193
*1455 FILLER_0_35_205
*1456 FILLER_0_35_217
*1457 FILLER_0_35_223
*1458 FILLER_0_35_225
*1459 FILLER_0_35_237
*1460 FILLER_0_35_249
*1461 FILLER_0_35_261
*1462 FILLER_0_35_27
*1463 FILLER_0_35_273
*1464 FILLER_0_35_279
*1465 FILLER_0_35_281
*1466 FILLER_0_35_293
*1467 FILLER_0_35_3
*1468 FILLER_0_35_305
*1469 FILLER_0_35_317
*1470 FILLER_0_35_329
*1471 FILLER_0_35_335
*1472 FILLER_0_35_337
*1473 FILLER_0_35_349
*1474 FILLER_0_35_39
*1475 FILLER_0_35_51
*1476 FILLER_0_35_55
*1477 FILLER_0_35_57
*1478 FILLER_0_35_69
*1479 FILLER_0_35_81
*1480 FILLER_0_35_93
*1481 FILLER_0_36_109
*1482 FILLER_0_36_121
*1483 FILLER_0_36_133
*1484 FILLER_0_36_139
*1485 FILLER_0_36_141
*1486 FILLER_0_36_15
*1487 FILLER_0_36_153
*1488 FILLER_0_36_165
*1489 FILLER_0_36_177
*1490 FILLER_0_36_189
*1491 FILLER_0_36_195
*1492 FILLER_0_36_197
*1493 FILLER_0_36_209
*1494 FILLER_0_36_221
*1495 FILLER_0_36_233
*1496 FILLER_0_36_245
*1497 FILLER_0_36_251
*1498 FILLER_0_36_253
*1499 FILLER_0_36_265
*1500 FILLER_0_36_27
*1501 FILLER_0_36_277
*1502 FILLER_0_36_289
*1503 FILLER_0_36_29
*1504 FILLER_0_36_3
*1505 FILLER_0_36_301
*1506 FILLER_0_36_307
*1507 FILLER_0_36_309
*1508 FILLER_0_36_321
*1509 FILLER_0_36_333
*1510 FILLER_0_36_345
*1511 FILLER_0_36_41
*1512 FILLER_0_36_53