*SPEF "ieee 1481-1999"
*DESIGN "tt_um_devinatkin_arduino_vga"
*DATE "11:11:11 Fri 11 11, 1111"
*VENDOR "OpenRCX"
*PROGRAM "Parallel Extraction"
*VERSION "1.0"
*DESIGN_FLOW "NAME_SCOPE LOCAL" "PIN_CAP NONE"
*DIVIDER /
*DELIMITER :
*BUS_DELIMITER []
*T_UNIT 1 NS
*C_UNIT 1 PF
*R_UNIT 1 OHM
*L_UNIT 1 HENRY

*NAME_MAP
*3 clk
*4 ena
*5 rst_n
*6 ui_in[0]
*7 ui_in[1]
*8 ui_in[2]
*9 ui_in[3]
*10 ui_in[4]
*11 ui_in[5]
*12 ui_in[6]
*13 ui_in[7]
*14 uio_in[0]
*15 uio_in[1]
*16 uio_in[2]
*17 uio_in[3]
*18 uio_in[4]
*19 uio_in[5]
*20 uio_in[6]
*21 uio_in[7]
*22 net18
*23 net19
*24 net20
*25 net21
*26 net22
*27 net23
*28 net24
*29 net25
*30 net26
*31 net27
*32 net28
*33 net29
*34 net30
*35 net31
*36 net32
*37 net33
*38 uo_out[0]
*39 net34
*40 net35
*41 net36
*42 net37
*43 net38
*44 net39
*45 net40
*46 _000_
*47 _001_
*48 _002_
*49 _003_
*50 _004_
*51 _005_
*52 _006_
*53 _007_
*54 _008_
*55 _009_
*56 _010_
*57 _011_
*58 _012_
*59 _013_
*60 _014_
*61 _015_
*62 _016_
*63 _017_
*64 _018_
*65 _019_
*66 _020_
*67 _021_
*68 _022_
*69 _023_
*70 _024_
*71 _025_
*72 _026_
*73 _027_
*74 _028_
*75 _029_
*76 _030_
*77 _031_
*78 _032_
*79 _033_
*80 _034_
*81 _035_
*82 _036_
*83 _037_
*84 _038_
*85 _039_
*86 _040_
*87 _041_
*88 _042_
*89 _043_
*90 _044_
*91 _045_
*92 _046_
*93 _047_
*94 _048_
*95 _049_
*96 _050_
*97 _051_
*98 _052_
*99 _053_
*100 _054_
*101 _055_
*102 _056_
*103 _057_
*104 _058_
*105 _059_
*106 _060_
*107 _061_
*108 _062_
*109 _063_
*110 _064_
*111 _065_
*112 _066_
*113 _067_
*114 _068_
*115 clknet_0_clk
*116 clknet_1_0__leaf_clk
*117 clknet_1_1__leaf_clk
*118 net1
*119 net10
*120 net11
*121 net12
*122 net13
*123 net14
*124 net15
*125 net16
*126 net17
*127 net2
*128 net3
*129 net4
*130 net41
*131 net42
*132 net5
*133 net6
*134 net7
*135 net8
*136 net9
*137 pwm_inst\.counter\[0\]
*138 pwm_inst\.counter\[1\]
*139 pwm_inst\.counter\[2\]
*140 pwm_inst\.counter\[3\]
*141 pwm_inst\.counter\[4\]
*142 pwm_inst\.counter\[5\]
*143 pwm_inst\.counter\[6\]
*144 pwm_inst\.counter\[7\]
*145 pwm_inst\.counter\[8\]
*146 pwm_inst\.pwm_out
*147 FILLER_0_0_109
*148 FILLER_0_0_113
*149 FILLER_0_0_125
*150 FILLER_0_0_137
*151 FILLER_0_0_141
*152 FILLER_0_0_15
*153 FILLER_0_0_153
*154 FILLER_0_0_165
*155 FILLER_0_0_169
*156 FILLER_0_0_181
*157 FILLER_0_0_193
*158 FILLER_0_0_197
*159 FILLER_0_0_209
*160 FILLER_0_0_221
*161 FILLER_0_0_225
*162 FILLER_0_0_237
*163 FILLER_0_0_249
*164 FILLER_0_0_253
*165 FILLER_0_0_265
*166 FILLER_0_0_27
*167 FILLER_0_0_277
*168 FILLER_0_0_281
*169 FILLER_0_0_29
*170 FILLER_0_0_293
*171 FILLER_0_0_3
*172 FILLER_0_0_305
*173 FILLER_0_0_309
*174 FILLER_0_0_321
*175 FILLER_0_0_333
*176 FILLER_0_0_337
*177 FILLER_0_0_349
*178 FILLER_0_0_41
*179 FILLER_0_0_53
*180 FILLER_0_0_57
*181 FILLER_0_0_69
*182 FILLER_0_0_81
*183 FILLER_0_0_85
*184 FILLER_0_0_97
*185 FILLER_0_10_109
*186 FILLER_0_10_121
*187 FILLER_0_10_133
*188 FILLER_0_10_139
*189 FILLER_0_10_141
*190 FILLER_0_10_15
*191 FILLER_0_10_153
*192 FILLER_0_10_165
*193 FILLER_0_10_177
*194 FILLER_0_10_189
*195 FILLER_0_10_195
*196 FILLER_0_10_197
*197 FILLER_0_10_209
*198 FILLER_0_10_221
*199 FILLER_0_10_233
*200 FILLER_0_10_245
*201 FILLER_0_10_251
*202 FILLER_0_10_253
*203 FILLER_0_10_265
*204 FILLER_0_10_27
*205 FILLER_0_10_277
*206 FILLER_0_10_289
*207 FILLER_0_10_29
*208 FILLER_0_10_3
*209 FILLER_0_10_301
*210 FILLER_0_10_307
*211 FILLER_0_10_309
*212 FILLER_0_10_321
*213 FILLER_0_10_333
*214 FILLER_0_10_345
*215 FILLER_0_10_41
*216 FILLER_0_10_53
*217 FILLER_0_10_65
*218 FILLER_0_10_77
*219 FILLER_0_10_83
*220 FILLER_0_10_85
*221 FILLER_0_10_97
*222 FILLER_0_11_105
*223 FILLER_0_11_111
*224 FILLER_0_11_113
*225 FILLER_0_11_125
*226 FILLER_0_11_137
*227 FILLER_0_11_149
*228 FILLER_0_11_15
*229 FILLER_0_11_161
*230 FILLER_0_11_167
*231 FILLER_0_11_169
*232 FILLER_0_11_181
*233 FILLER_0_11_193
*234 FILLER_0_11_205
*235 FILLER_0_11_217
*236 FILLER_0_11_223
*237 FILLER_0_11_225
*238 FILLER_0_11_237
*239 FILLER_0_11_249
*240 FILLER_0_11_261
*241 FILLER_0_11_27
*242 FILLER_0_11_273
*243 FILLER_0_11_279
*244 FILLER_0_11_281
*245 FILLER_0_11_293
*246 FILLER_0_11_3
*247 FILLER_0_11_305
*248 FILLER_0_11_317
*249 FILLER_0_11_329
*250 FILLER_0_11_335
*251 FILLER_0_11_337
*252 FILLER_0_11_349
*253 FILLER_0_11_39
*254 FILLER_0_11_51
*255 FILLER_0_11_55
*256 FILLER_0_11_57
*257 FILLER_0_11_69
*258 FILLER_0_11_81
*259 FILLER_0_11_93
*260 FILLER_0_12_109
*261 FILLER_0_12_121
*262 FILLER_0_12_133
*263 FILLER_0_12_139
*264 FILLER_0_12_141
*265 FILLER_0_12_15
*266 FILLER_0_12_153
*267 FILLER_0_12_165
*268 FILLER_0_12_177
*269 FILLER_0_12_189
*270 FILLER_0_12_195
*271 FILLER_0_12_197
*272 FILLER_0_12_209
*273 FILLER_0_12_221
*274 FILLER_0_12_233
*275 FILLER_0_12_245
*276 FILLER_0_12_251
*277 FILLER_0_12_253
*278 FILLER_0_12_265
*279 FILLER_0_12_27
*280 FILLER_0_12_277
*281 FILLER_0_12_289
*282 FILLER_0_12_29
*283 FILLER_0_12_3
*284 FILLER_0_12_301
*285 FILLER_0_12_307
*286 FILLER_0_12_309
*287 FILLER_0_12_321
*288 FILLER_0_12_333
*289 FILLER_0_12_345
*290 FILLER_0_12_41
*291 FILLER_0_12_53
*292 FILLER_0_12_65
*293 FILLER_0_12_77
*294 FILLER_0_12_83
*295 FILLER_0_12_85
*296 FILLER_0_12_97
*297 FILLER_0_13_105
*298 FILLER_0_13_111
*299 FILLER_0_13_113
*300 FILLER_0_13_125
*301 FILLER_0_13_137
*302 FILLER_0_13_149
*303 FILLER_0_13_15
*304 FILLER_0_13_161
*305 FILLER_0_13_167
*306 FILLER_0_13_169
*307 FILLER_0_13_181
*308 FILLER_0_13_193
*309 FILLER_0_13_205
*310 FILLER_0_13_217
*311 FILLER_0_13_223
*312 FILLER_0_13_225
*313 FILLER_0_13_237
*314 FILLER_0_13_249
*315 FILLER_0_13_261
*316 FILLER_0_13_27
*317 FILLER_0_13_273
*318 FILLER_0_13_279
*319 FILLER_0_13_281
*320 FILLER_0_13_293
*321 FILLER_0_13_3
*322 FILLER_0_13_305
*323 FILLER_0_13_317
*324 FILLER_0_13_329
*325 FILLER_0_13_335
*326 FILLER_0_13_337
*327 FILLER_0_13_349
*328 FILLER_0_13_39
*329 FILLER_0_13_51
*330 FILLER_0_13_55
*331 FILLER_0_13_57
*332 FILLER_0_13_69
*333 FILLER_0_13_81
*334 FILLER_0_13_93
*335 FILLER_0_14_109
*336 FILLER_0_14_121
*337 FILLER_0_14_133
*338 FILLER_0_14_139
*339 FILLER_0_14_141
*340 FILLER_0_14_15
*341 FILLER_0_14_153
*342 FILLER_0_14_165
*343 FILLER_0_14_177
*344 FILLER_0_14_189
*345 FILLER_0_14_195
*346 FILLER_0_14_197
*347 FILLER_0_14_209
*348 FILLER_0_14_221
*349 FILLER_0_14_233
*350 FILLER_0_14_245
*351 FILLER_0_14_251
*352 FILLER_0_14_253
*353 FILLER_0_14_265
*354 FILLER_0_14_27
*355 FILLER_0_14_277
*356 FILLER_0_14_289
*357 FILLER_0_14_29
*358 FILLER_0_14_3
*359 FILLER_0_14_301
*360 FILLER_0_14_307
*361 FILLER_0_14_309
*362 FILLER_0_14_321
*363 FILLER_0_14_333
*364 FILLER_0_14_345
*365 FILLER_0_14_41
*366 FILLER_0_14_53
*367 FILLER_0_14_65
*368 FILLER_0_14_77
*369 FILLER_0_14_83
*370 FILLER_0_14_85
*371 FILLER_0_14_97
*372 FILLER_0_15_105
*373 FILLER_0_15_111
*374 FILLER_0_15_113
*375 FILLER_0_15_125
*376 FILLER_0_15_137
*377 FILLER_0_15_149
*378 FILLER_0_15_15
*379 FILLER_0_15_161
*380 FILLER_0_15_167
*381 FILLER_0_15_169
*382 FILLER_0_15_181
*383 FILLER_0_15_193
*384 FILLER_0_15_205
*385 FILLER_0_15_217
*386 FILLER_0_15_223
*387 FILLER_0_15_225
*388 FILLER_0_15_237
*389 FILLER_0_15_249
*390 FILLER_0_15_261
*391 FILLER_0_15_27
*392 FILLER_0_15_273
*393 FILLER_0_15_279
*394 FILLER_0_15_281
*395 FILLER_0_15_293
*396 FILLER_0_15_3
*397 FILLER_0_15_305
*398 FILLER_0_15_317
*399 FILLER_0_15_329
*400 FILLER_0_15_335
*401 FILLER_0_15_337
*402 FILLER_0_15_349
*403 FILLER_0_15_39
*404 FILLER_0_15_51
*405 FILLER_0_15_55
*406 FILLER_0_15_57
*407 FILLER_0_15_69
*408 FILLER_0_15_81
*409 FILLER_0_15_93
*410 FILLER_0_16_109
*411 FILLER_0_16_121
*412 FILLER_0_16_133
*413 FILLER_0_16_139
*414 FILLER_0_16_141
*415 FILLER_0_16_15
*416 FILLER_0_16_153
*417 FILLER_0_16_165
*418 FILLER_0_16_177
*419 FILLER_0_16_189
*420 FILLER_0_16_195
*421 FILLER_0_16_197
*422 FILLER_0_16_209
*423 FILLER_0_16_221
*424 FILLER_0_16_233
*425 FILLER_0_16_245
*426 FILLER_0_16_251
*427 FILLER_0_16_253
*428 FILLER_0_16_265
*429 FILLER_0_16_27
*430 FILLER_0_16_277
*431 FILLER_0_16_289
*432 FILLER_0_16_29
*433 FILLER_0_16_3
*434 FILLER_0_16_301
*435 FILLER_0_16_307
*436 FILLER_0_16_309
*437 FILLER_0_16_321
*438 FILLER_0_16_333
*439 FILLER_0_16_345
*440 FILLER_0_16_41
*441 FILLER_0_16_53
*442 FILLER_0_16_65
*443 FILLER_0_16_77
*444 FILLER_0_16_83
*445 FILLER_0_16_85
*446 FILLER_0_16_97
*447 FILLER_0_17_105
*448 FILLER_0_17_111
*449 FILLER_0_17_113
*450 FILLER_0_17_125
*451 FILLER_0_17_137
*452 FILLER_0_17_149
*453 FILLER_0_17_15
*454 FILLER_0_17_161
*455 FILLER_0_17_167
*456 FILLER_0_17_169
*457 FILLER_0_17_181
*458 FILLER_0_17_193
*459 FILLER_0_17_205
*460 FILLER_0_17_217
*461 FILLER_0_17_223
*462 FILLER_0_17_225
*463 FILLER_0_17_237
*464 FILLER_0_17_249
*465 FILLER_0_17_261
*466 FILLER_0_17_27
*467 FILLER_0_17_273
*468 FILLER_0_17_279
*469 FILLER_0_17_281
*470 FILLER_0_17_293
*471 FILLER_0_17_3
*472 FILLER_0_17_305
*473 FILLER_0_17_317
*474 FILLER_0_17_329
*475 FILLER_0_17_335
*476 FILLER_0_17_337
*477 FILLER_0_17_349
*478 FILLER_0_17_39
*479 FILLER_0_17_51
*480 FILLER_0_17_55
*481 FILLER_0_17_57
*482 FILLER_0_17_69
*483 FILLER_0_17_81
*484 FILLER_0_17_93
*485 FILLER_0_18_109
*486 FILLER_0_18_121
*487 FILLER_0_18_133
*488 FILLER_0_18_139
*489 FILLER_0_18_141
*490 FILLER_0_18_15
*491 FILLER_0_18_153
*492 FILLER_0_18_165
*493 FILLER_0_18_177
*494 FILLER_0_18_189
*495 FILLER_0_18_195
*496 FILLER_0_18_197
*497 FILLER_0_18_209
*498 FILLER_0_18_221
*499 FILLER_0_18_233
*500 FILLER_0_18_245
*501 FILLER_0_18_251
*502 FILLER_0_18_253
*503 FILLER_0_18_265
*504 FILLER_0_18_27
*505 FILLER_0_18_277
*506 FILLER_0_18_289
*507 FILLER_0_18_29
*508 FILLER_0_18_3
*509 FILLER_0_18_301
*510 FILLER_0_18_307
*511 FILLER_0_18_309
*512 FILLER_0_18_321
*513 FILLER_0_18_333
*514 FILLER_0_18_345
*515 FILLER_0_18_41
*516 FILLER_0_18_53
*517 FILLER_0_18_65
*518 FILLER_0_18_77
*519 FILLER_0_18_83
*520 FILLER_0_18_85
*521 FILLER_0_18_97
*522 FILLER_0_19_105
*523 FILLER_0_19_111
*524 FILLER_0_19_113
*525 FILLER_0_19_125
*526 FILLER_0_19_137
*527 FILLER_0_19_149
*528 FILLER_0_19_15
*529 FILLER_0_19_161
*530 FILLER_0_19_167
*531 FILLER_0_19_169
*532 FILLER_0_19_181
*533 FILLER_0_19_193
*534 FILLER_0_19_205
*535 FILLER_0_19_217
*536 FILLER_0_19_223
*537 FILLER_0_19_225
*538 FILLER_0_19_237
*539 FILLER_0_19_249
*540 FILLER_0_19_261
*541 FILLER_0_19_27
*542 FILLER_0_19_273
*543 FILLER_0_19_279
*544 FILLER_0_19_281
*545 FILLER_0_19_293
*546 FILLER_0_19_3
*547 FILLER_0_19_305
*548 FILLER_0_19_317
*549 FILLER_0_19_329
*550 FILLER_0_19_335
*551 FILLER_0_19_337
*552 FILLER_0_19_349
*553 FILLER_0_19_39
*554 FILLER_0_19_51
*555 FILLER_0_19_55
*556 FILLER_0_19_57
*557 FILLER_0_19_69
*558 FILLER_0_19_81
*559 FILLER_0_19_93
*560 FILLER_0_1_105
*561 FILLER_0_1_111
*562 FILLER_0_1_113
*563 FILLER_0_1_125
*564 FILLER_0_1_137
*565 FILLER_0_1_149
*566 FILLER_0_1_15
*567 FILLER_0_1_161
*568 FILLER_0_1_167
*569 FILLER_0_1_169
*570 FILLER_0_1_181
*571 FILLER_0_1_193
*572 FILLER_0_1_205
*573 FILLER_0_1_217
*574 FILLER_0_1_223
*575 FILLER_0_1_225
*576 FILLER_0_1_237
*577 FILLER_0_1_249
*578 FILLER_0_1_261
*579 FILLER_0_1_27
*580 FILLER_0_1_273
*581 FILLER_0_1_279
*582 FILLER_0_1_281
*583 FILLER_0_1_293
*584 FILLER_0_1_3
*585 FILLER_0_1_305
*586 FILLER_0_1_317
*587 FILLER_0_1_329
*588 FILLER_0_1_335
*589 FILLER_0_1_337
*590 FILLER_0_1_349
*591 FILLER_0_1_39
*592 FILLER_0_1_51
*593 FILLER_0_1_55
*594 FILLER_0_1_57
*595 FILLER_0_1_69
*596 FILLER_0_1_81
*597 FILLER_0_1_93
*598 FILLER_0_20_109
*599 FILLER_0_20_121
*600 FILLER_0_20_133
*601 FILLER_0_20_139
*602 FILLER_0_20_141
*603 FILLER_0_20_15
*604 FILLER_0_20_153
*605 FILLER_0_20_165
*606 FILLER_0_20_177
*607 FILLER_0_20_189
*608 FILLER_0_20_195
*609 FILLER_0_20_197
*610 FILLER_0_20_209
*611 FILLER_0_20_221
*612 FILLER_0_20_233
*613 FILLER_0_20_245
*614 FILLER_0_20_251
*615 FILLER_0_20_253
*616 FILLER_0_20_265
*617 FILLER_0_20_27
*618 FILLER_0_20_277
*619 FILLER_0_20_289
*620 FILLER_0_20_29
*621 FILLER_0_20_3
*622 FILLER_0_20_301
*623 FILLER_0_20_307
*624 FILLER_0_20_309
*625 FILLER_0_20_321
*626 FILLER_0_20_333
*627 FILLER_0_20_345
*628 FILLER_0_20_41
*629 FILLER_0_20_53
*630 FILLER_0_20_65
*631 FILLER_0_20_77
*632 FILLER_0_20_83
*633 FILLER_0_20_85
*634 FILLER_0_20_97
*635 FILLER_0_21_105
*636 FILLER_0_21_111
*637 FILLER_0_21_113
*638 FILLER_0_21_125
*639 FILLER_0_21_137
*640 FILLER_0_21_149
*641 FILLER_0_21_15
*642 FILLER_0_21_161
*643 FILLER_0_21_167
*644 FILLER_0_21_169
*645 FILLER_0_21_181
*646 FILLER_0_21_193
*647 FILLER_0_21_205
*648 FILLER_0_21_217
*649 FILLER_0_21_223
*650 FILLER_0_21_225
*651 FILLER_0_21_237
*652 FILLER_0_21_249
*653 FILLER_0_21_261
*654 FILLER_0_21_27
*655 FILLER_0_21_273
*656 FILLER_0_21_279
*657 FILLER_0_21_281
*658 FILLER_0_21_293
*659 FILLER_0_21_3
*660 FILLER_0_21_305
*661 FILLER_0_21_317
*662 FILLER_0_21_329
*663 FILLER_0_21_335
*664 FILLER_0_21_337
*665 FILLER_0_21_349
*666 FILLER_0_21_39
*667 FILLER_0_21_51
*668 FILLER_0_21_55
*669 FILLER_0_21_57
*670 FILLER_0_21_69
*671 FILLER_0_21_81
*672 FILLER_0_21_93
*673 FILLER_0_22_109
*674 FILLER_0_22_121
*675 FILLER_0_22_133
*676 FILLER_0_22_139
*677 FILLER_0_22_141
*678 FILLER_0_22_15
*679 FILLER_0_22_153
*680 FILLER_0_22_165
*681 FILLER_0_22_177
*682 FILLER_0_22_189
*683 FILLER_0_22_195
*684 FILLER_0_22_197
*685 FILLER_0_22_209
*686 FILLER_0_22_221
*687 FILLER_0_22_233
*688 FILLER_0_22_245
*689 FILLER_0_22_251
*690 FILLER_0_22_253
*691 FILLER_0_22_265
*692 FILLER_0_22_27
*693 FILLER_0_22_277
*694 FILLER_0_22_289
*695 FILLER_0_22_29
*696 FILLER_0_22_3
*697 FILLER_0_22_301
*698 FILLER_0_22_307
*699 FILLER_0_22_309
*700 FILLER_0_22_321
*701 FILLER_0_22_333
*702 FILLER_0_22_345
*703 FILLER_0_22_41
*704 FILLER_0_22_53
*705 FILLER_0_22_65
*706 FILLER_0_22_77
*707 FILLER_0_22_83
*708 FILLER_0_22_85
*709 FILLER_0_22_97
*710 FILLER_0_23_105
*711 FILLER_0_23_111
*712 FILLER_0_23_113
*713 FILLER_0_23_125
*714 FILLER_0_23_137
*715 FILLER_0_23_149
*716 FILLER_0_23_15
*717 FILLER_0_23_161
*718 FILLER_0_23_167
*719 FILLER_0_23_169
*720 FILLER_0_23_181
*721 FILLER_0_23_193
*722 FILLER_0_23_205
*723 FILLER_0_23_217
*724 FILLER_0_23_223
*725 FILLER_0_23_225
*726 FILLER_0_23_237
*727 FILLER_0_23_249
*728 FILLER_0_23_261
*729 FILLER_0_23_27
*730 FILLER_0_23_273
*731 FILLER_0_23_279
*732 FILLER_0_23_281
*733 FILLER_0_23_293
*734 FILLER_0_23_3
*735 FILLER_0_23_305
*736 FILLER_0_23_317
*737 FILLER_0_23_329
*738 FILLER_0_23_335
*739 FILLER_0_23_337
*740 FILLER_0_23_349
*741 FILLER_0_23_39
*742 FILLER_0_23_51
*743 FILLER_0_23_55
*744 FILLER_0_23_57
*745 FILLER_0_23_69
*746 FILLER_0_23_81
*747 FILLER_0_23_93
*748 FILLER_0_24_109
*749 FILLER_0_24_121
*750 FILLER_0_24_133
*751 FILLER_0_24_139
*752 FILLER_0_24_141
*753 FILLER_0_24_15
*754 FILLER_0_24_153
*755 FILLER_0_24_165
*756 FILLER_0_24_177
*757 FILLER_0_24_189
*758 FILLER_0_24_195
*759 FILLER_0_24_197
*760 FILLER_0_24_209
*761 FILLER_0_24_221
*762 FILLER_0_24_233
*763 FILLER_0_24_245
*764 FILLER_0_24_251
*765 FILLER_0_24_253
*766 FILLER_0_24_265
*767 FILLER_0_24_27
*768 FILLER_0_24_277
*769 FILLER_0_24_289
*770 FILLER_0_24_29
*771 FILLER_0_24_3
*772 FILLER_0_24_301
*773 FILLER_0_24_307
*774 FILLER_0_24_309
*775 FILLER_0_24_321
*776 FILLER_0_24_333
*777 FILLER_0_24_345
*778 FILLER_0_24_41
*779 FILLER_0_24_53
*780 FILLER_0_24_65
*781 FILLER_0_24_77
*782 FILLER_0_24_83
*783 FILLER_0_24_85
*784 FILLER_0_24_97
*785 FILLER_0_25_105
*786 FILLER_0_25_111
*787 FILLER_0_25_113
*788 FILLER_0_25_125
*789 FILLER_0_25_137
*790 FILLER_0_25_149
*791 FILLER_0_25_15
*792 FILLER_0_25_161
*793 FILLER_0_25_167
*794 FILLER_0_25_169
*795 FILLER_0_25_181
*796 FILLER_0_25_193
*797 FILLER_0_25_205
*798 FILLER_0_25_217
*799 FILLER_0_25_223
*800 FILLER_0_25_225
*801 FILLER_0_25_237
*802 FILLER_0_25_249
*803 FILLER_0_25_261
*804 FILLER_0_25_27
*805 FILLER_0_25_273
*806 FILLER_0_25_279
*807 FILLER_0_25_281
*808 FILLER_0_25_293
*809 FILLER_0_25_3
*810 FILLER_0_25_305
*811 FILLER_0_25_317
*812 FILLER_0_25_329
*813 FILLER_0_25_335
*814 FILLER_0_25_337
*815 FILLER_0_25_349
*816 FILLER_0_25_39
*817 FILLER_0_25_51
*818 FILLER_0_25_55
*819 FILLER_0_25_57
*820 FILLER_0_25_69
*821 FILLER_0_25_81
*822 FILLER_0_25_93
*823 FILLER_0_26_109
*824 FILLER_0_26_121
*825 FILLER_0_26_133
*826 FILLER_0_26_139
*827 FILLER_0_26_141
*828 FILLER_0_26_15
*829 FILLER_0_26_153
*830 FILLER_0_26_165
*831 FILLER_0_26_177
*832 FILLER_0_26_189
*833 FILLER_0_26_195
*834 FILLER_0_26_197
*835 FILLER_0_26_209
*836 FILLER_0_26_221
*837 FILLER_0_26_233
*838 FILLER_0_26_245
*839 FILLER_0_26_251
*840 FILLER_0_26_253
*841 FILLER_0_26_265
*842 FILLER_0_26_27
*843 FILLER_0_26_277
*844 FILLER_0_26_289
*845 FILLER_0_26_29
*846 FILLER_0_26_3
*847 FILLER_0_26_301
*848 FILLER_0_26_307
*849 FILLER_0_26_309
*850 FILLER_0_26_321
*851 FILLER_0_26_333
*852 FILLER_0_26_345
*853 FILLER_0_26_41
*854 FILLER_0_26_53
*855 FILLER_0_26_65
*856 FILLER_0_26_77
*857 FILLER_0_26_83
*858 FILLER_0_26_85
*859 FILLER_0_26_97
*860 FILLER_0_27_105
*861 FILLER_0_27_111
*862 FILLER_0_27_113
*863 FILLER_0_27_125
*864 FILLER_0_27_137
*865 FILLER_0_27_149
*866 FILLER_0_27_15
*867 FILLER_0_27_161
*868 FILLER_0_27_167
*869 FILLER_0_27_169
*870 FILLER_0_27_181
*871 FILLER_0_27_193
*872 FILLER_0_27_205
*873 FILLER_0_27_217
*874 FILLER_0_27_223
*875 FILLER_0_27_225
*876 FILLER_0_27_237
*877 FILLER_0_27_249
*878 FILLER_0_27_261
*879 FILLER_0_27_27
*880 FILLER_0_27_273
*881 FILLER_0_27_279
*882 FILLER_0_27_281
*883 FILLER_0_27_293
*884 FILLER_0_27_3
*885 FILLER_0_27_305
*886 FILLER_0_27_317
*887 FILLER_0_27_329
*888 FILLER_0_27_335
*889 FILLER_0_27_337
*890 FILLER_0_27_349
*891 FILLER_0_27_39
*892 FILLER_0_27_51
*893 FILLER_0_27_55
*894 FILLER_0_27_57
*895 FILLER_0_27_69
*896 FILLER_0_27_81
*897 FILLER_0_27_93
*898 FILLER_0_28_109
*899 FILLER_0_28_121
*900 FILLER_0_28_133
*901 FILLER_0_28_139
*902 FILLER_0_28_141
*903 FILLER_0_28_15
*904 FILLER_0_28_153
*905 FILLER_0_28_165
*906 FILLER_0_28_177
*907 FILLER_0_28_189
*908 FILLER_0_28_195
*909 FILLER_0_28_197
*910 FILLER_0_28_209
*911 FILLER_0_28_221
*912 FILLER_0_28_233
*913 FILLER_0_28_245
*914 FILLER_0_28_251
*915 FILLER_0_28_253
*916 FILLER_0_28_265
*917 FILLER_0_28_27
*918 FILLER_0_28_277
*919 FILLER_0_28_289
*920 FILLER_0_28_29
*921 FILLER_0_28_3
*922 FILLER_0_28_301
*923 FILLER_0_28_307
*924 FILLER_0_28_309
*925 FILLER_0_28_321
*926 FILLER_0_28_333
*927 FILLER_0_28_345
*928 FILLER_0_28_41
*929 FILLER_0_28_53
*930 FILLER_0_28_65
*931 FILLER_0_28_77
*932 FILLER_0_28_83
*933 FILLER_0_28_85
*934 FILLER_0_28_97
*935 FILLER_0_29_105
*936 FILLER_0_29_111
*937 FILLER_0_29_113
*938 FILLER_0_29_125
*939 FILLER_0_29_137
*940 FILLER_0_29_149
*941 FILLER_0_29_15
*942 FILLER_0_29_161
*943 FILLER_0_29_167
*944 FILLER_0_29_169
*945 FILLER_0_29_181
*946 FILLER_0_29_193
*947 FILLER_0_29_205
*948 FILLER_0_29_217
*949 FILLER_0_29_223
*950 FILLER_0_29_225
*951 FILLER_0_29_237
*952 FILLER_0_29_249
*953 FILLER_0_29_261
*954 FILLER_0_29_27
*955 FILLER_0_29_273
*956 FILLER_0_29_279
*957 FILLER_0_29_281
*958 FILLER_0_29_293
*959 FILLER_0_29_3
*960 FILLER_0_29_305
*961 FILLER_0_29_317
*962 FILLER_0_29_329
*963 FILLER_0_29_335
*964 FILLER_0_29_337
*965 FILLER_0_29_349
*966 FILLER_0_29_39
*967 FILLER_0_29_51
*968 FILLER_0_29_55
*969 FILLER_0_29_57
*970 FILLER_0_29_69
*971 FILLER_0_29_81
*972 FILLER_0_29_93
*973 FILLER_0_2_109
*974 FILLER_0_2_121
*975 FILLER_0_2_133
*976 FILLER_0_2_139
*977 FILLER_0_2_141
*978 FILLER_0_2_15
*979 FILLER_0_2_153
*980 FILLER_0_2_165
*981 FILLER_0_2_177
*982 FILLER_0_2_189
*983 FILLER_0_2_195
*984 FILLER_0_2_197
*985 FILLER_0_2_209
*986 FILLER_0_2_221
*987 FILLER_0_2_233
*988 FILLER_0_2_245
*989 FILLER_0_2_251
*990 FILLER_0_2_253
*991 FILLER_0_2_265
*992 FILLER_0_2_27
*993 FILLER_0_2_277
*994 FILLER_0_2_289
*995 FILLER_0_2_29
*996 FILLER_0_2_3
*997 FILLER_0_2_301
*998 FILLER_0_2_307
*999 FILLER_0_2_309
*1000 FILLER_0_2_321
*1001 FILLER_0_2_333
*1002 FILLER_0_2_345
*1003 FILLER_0_2_41
*1004 FILLER_0_2_53
*1005 FILLER_0_2_65
*1006 FILLER_0_2_77
*1007 FILLER_0_2_83
*1008 FILLER_0_2_85
*1009 FILLER_0_2_97
*1010 FILLER_0_30_109
*1011 FILLER_0_30_121
*1012 FILLER_0_30_133
*1013 FILLER_0_30_139
*1014 FILLER_0_30_141
*1015 FILLER_0_30_15
*1016 FILLER_0_30_153
*1017 FILLER_0_30_165
*1018 FILLER_0_30_177
*1019 FILLER_0_30_189
*1020 FILLER_0_30_195
*1021 FILLER_0_30_197
*1022 FILLER_0_30_209
*1023 FILLER_0_30_221
*1024 FILLER_0_30_233
*1025 FILLER_0_30_245
*1026 FILLER_0_30_251
*1027 FILLER_0_30_253
*1028 FILLER_0_30_265
*1029 FILLER_0_30_27
*1030 FILLER_0_30_277
*1031 FILLER_0_30_289
*1032 FILLER_0_30_29
*1033 FILLER_0_30_3
*1034 FILLER_0_30_301
*1035 FILLER_0_30_307
*1036 FILLER_0_30_309
*1037 FILLER_0_30_321
*1038 FILLER_0_30_333
*1039 FILLER_0_30_345
*1040 FILLER_0_30_41
*1041 FILLER_0_30_53
*1042 FILLER_0_30_65
*1043 FILLER_0_30_77
*1044 FILLER_0_30_83
*1045 FILLER_0_30_85
*1046 FILLER_0_30_97
*1047 FILLER_0_31_105
*1048 FILLER_0_31_111
*1049 FILLER_0_31_113
*1050 FILLER_0_31_125
*1051 FILLER_0_31_137
*1052 FILLER_0_31_149
*1053 FILLER_0_31_15
*1054 FILLER_0_31_161
*1055 FILLER_0_31_167
*1056 FILLER_0_31_169
*1057 FILLER_0_31_181
*1058 FILLER_0_31_193
*1059 FILLER_0_31_205
*1060 FILLER_0_31_217
*1061 FILLER_0_31_223
*1062 FILLER_0_31_225
*1063 FILLER_0_31_237
*1064 FILLER_0_31_249
*1065 FILLER_0_31_261
*1066 FILLER_0_31_27
*1067 FILLER_0_31_273
*1068 FILLER_0_31_279
*1069 FILLER_0_31_281
*1070 FILLER_0_31_293
*1071 FILLER_0_31_3
*1072 FILLER_0_31_305
*1073 FILLER_0_31_317
*1074 FILLER_0_31_329
*1075 FILLER_0_31_335
*1076 FILLER_0_31_337
*1077 FILLER_0_31_349
*1078 FILLER_0_31_39
*1079 FILLER_0_31_51
*1080 FILLER_0_31_55
*1081 FILLER_0_31_57
*1082 FILLER_0_31_69
*1083 FILLER_0_31_81
*1084 FILLER_0_31_93
*1085 FILLER_0_32_109
*1086 FILLER_0_32_121
*1087 FILLER_0_32_133
*1088 FILLER_0_32_139
*1089 FILLER_0_32_141
*1090 FILLER_0_32_15
*1091 FILLER_0_32_153
*1092 FILLER_0_32_165
*1093 FILLER_0_32_177
*1094 FILLER_0_32_189
*1095 FILLER_0_32_195
*1096 FILLER_0_32_197
*1097 FILLER_0_32_209
*1098 FILLER_0_32_221
*1099 FILLER_0_32_233
*1100 FILLER_0_32_245
*1101 FILLER_0_32_251
*1102 FILLER_0_32_253
*1103 FILLER_0_32_265
*1104 FILLER_0_32_27
*1105 FILLER_0_32_277
*1106 FILLER_0_32_289
*1107 FILLER_0_32_29
*1108 FILLER_0_32_3
*1109 FILLER_0_32_301
*1110 FILLER_0_32_307
*1111 FILLER_0_32_309
*1112 FILLER_0_32_321
*1113 FILLER_0_32_333
*1114 FILLER_0_32_345
*1115 FILLER_0_32_41
*1116 FILLER_0_32_53
*1117 FILLER_0_32_65
*1118 FILLER_0_32_77
*1119 FILLER_0_32_83
*1120 FILLER_0_32_85
*1121 FILLER_0_32_97
*1122 FILLER_0_33_105
*1123 FILLER_0_33_111
*1124 FILLER_0_33_113
*1125 FILLER_0_33_125
*1126 FILLER_0_33_137
*1127 FILLER_0_33_149
*1128 FILLER_0_33_15
*1129 FILLER_0_33_161
*1130 FILLER_0_33_167
*1131 FILLER_0_33_169
*1132 FILLER_0_33_181
*1133 FILLER_0_33_193
*1134 FILLER_0_33_205
*1135 FILLER_0_33_217
*1136 FILLER_0_33_223
*1137 FILLER_0_33_225
*1138 FILLER_0_33_237
*1139 FILLER_0_33_249
*1140 FILLER_0_33_261
*1141 FILLER_0_33_27
*1142 FILLER_0_33_273
*1143 FILLER_0_33_279
*1144 FILLER_0_33_281
*1145 FILLER_0_33_293
*1146 FILLER_0_33_3
*1147 FILLER_0_33_305
*1148 FILLER_0_33_317
*1149 FILLER_0_33_329
*1150 FILLER_0_33_335
*1151 FILLER_0_33_337
*1152 FILLER_0_33_349
*1153 FILLER_0_33_39
*1154 FILLER_0_33_51
*1155 FILLER_0_33_55
*1156 FILLER_0_33_57
*1157 FILLER_0_33_69
*1158 FILLER_0_33_81
*1159 FILLER_0_33_93
*1160 FILLER_0_34_109
*1161 FILLER_0_34_121
*1162 FILLER_0_34_133
*1163 FILLER_0_34_139
*1164 FILLER_0_34_141
*1165 FILLER_0_34_15
*1166 FILLER_0_34_153
*1167 FILLER_0_34_165
*1168 FILLER_0_34_177
*1169 FILLER_0_34_189
*1170 FILLER_0_34_195
*1171 FILLER_0_34_197
*1172 FILLER_0_34_209
*1173 FILLER_0_34_221
*1174 FILLER_0_34_233
*1175 FILLER_0_34_245
*1176 FILLER_0_34_251
*1177 FILLER_0_34_253
*1178 FILLER_0_34_265
*1179 FILLER_0_34_27
*1180 FILLER_0_34_277
*1181 FILLER_0_34_289
*1182 FILLER_0_34_29
*1183 FILLER_0_34_3
*1184 FILLER_0_34_301
*1185 FILLER_0_34_307
*1186 FILLER_0_34_309
*1187 FILLER_0_34_321
*1188 FILLER_0_34_333
*1189 FILLER_0_34_345
*1190 FILLER_0_34_41
*1191 FILLER_0_34_53
*1192 FILLER_0_34_65
*1193 FILLER_0_34_77
*1194 FILLER_0_34_83
*1195 FILLER_0_34_85
*1196 FILLER_0_34_97
*1197 FILLER_0_35_105
*1198 FILLER_0_35_111
*1199 FILLER_0_35_113
*1200 FILLER_0_35_125
*1201 FILLER_0_35_137
*1202 FILLER_0_35_149
*1203 FILLER_0_35_15
*1204 FILLER_0_35_161
*1205 FILLER_0_35_167
*1206 FILLER_0_35_169
*1207 FILLER_0_35_181
*1208 FILLER_0_35_193
*1209 FILLER_0_35_205
*1210 FILLER_0_35_217
*1211 FILLER_0_35_223
*1212 FILLER_0_35_225
*1213 FILLER_0_35_237
*1214 FILLER_0_35_249
*1215 FILLER_0_35_261
*1216 FILLER_0_35_27
*1217 FILLER_0_35_273
*1218 FILLER_0_35_279
*1219 FILLER_0_35_281
*1220 FILLER_0_35_293
*1221 FILLER_0_35_3
*1222 FILLER_0_35_305
*1223 FILLER_0_35_317
*1224 FILLER_0_35_329
*1225 FILLER_0_35_335
*1226 FILLER_0_35_337
*1227 FILLER_0_35_349
*1228 FILLER_0_35_39
*1229 FILLER_0_35_51
*1230 FILLER_0_35_55
*1231 FILLER_0_35_57
*1232 FILLER_0_35_69
*1233 FILLER_0_35_81
*1234 FILLER_0_35_93
*1235 FILLER_0_36_109
*1236 FILLER_0_36_121
*1237 FILLER_0_36_133
*1238 FILLER_0_36_139
*1239 FILLER_0_36_141
*1240 FILLER_0_36_15
*1241 FILLER_0_36_153
*1242 FILLER_0_36_165
*1243 FILLER_0_36_177
*1244 FILLER_0_36_189
*1245 FILLER_0_36_195
*1246 FILLER_0_36_197
*1247 FILLER_0_36_209
*1248 FILLER_0_36_221
*1249 FILLER_0_36_233
*1250 FILLER_0_36_245
*1251 FILLER_0_36_251
*1252 FILLER_0_36_253
*1253 FILLER_0_36_265
*1254 FILLER_0_36_27
*1255 FILLER_0_36_277
*1256 FILLER_0_36_289
*1257 FILLER_0_36_29
*1258 FILLER_0_36_3
*1259 FILLER_0_36_301
*1260 FILLER_0_36_307
*1261 FILLER_0_36_309
*1262 FILLER_0_36_321
*1263 FILLER_0_36_333
*1264 FILLER_0_36_345
*1265 FILLER_0_36_41
*1266 FILLER_0_36_53
*1267 FILLER_0_36_65
*1268 FILLER_0_36_77
*1269 FILLER_0_36_83
*1270 FILLER_0_36_85
*1271 FILLER_0_36_97
*1272 FILLER_0_37_105
*1273 FILLER_0_37_111
*1274 FILLER_0_37_113
*1275 FILLER_0_37_125
*1276 FILLER_0_37_137
*1277 FILLER_0_37_149
*1278 FILLER_0_37_15
*1279 FILLER_0_37_161
*1280 FILLER_0_37_167
*1281 FILLER_0_37_169
*1282 FILLER_0_37_181
*1283 FILLER_0_37_193
*1284 FILLER_0_37_205
*1285 FILLER_0_37_217
*1286 FILLER_0_37_223
*1287 FILLER_0_37_225
*1288 FILLER_0_37_237
*1289 FILLER_0_37_249
*1290 FILLER_0_37_261
*1291 FILLER_0_37_27
*1292 FILLER_0_37_273
*1293 FILLER_0_37_279
*1294 FILLER_0_37_281
*1295 FILLER_0_37_293
*1296 FILLER_0_37_3
*1297 FILLER_0_37_305
*1298 FILLER_0_37_317
*1299 FILLER_0_37_329
*1300 FILLER_0_37_335
*1301 FILLER_0_37_337
*1302 FILLER_0_37_349
*1303 FILLER_0_37_39
*1304 FILLER_0_37_51
*1305 FILLER_0_37_55
*1306 FILLER_0_37_57
*1307 FILLER_0_37_69
*1308 FILLER_0_37_81
*1309 FILLER_0_37_93
*1310 FILLER_0_38_109
*1311 FILLER_0_38_121
*1312 FILLER_0_38_133
*1313 FILLER_0_38_139
*1314 FILLER_0_38_141
*1315 FILLER_0_38_15
*1316 FILLER_0_38_153
*1317 FILLER_0_38_165
*1318 FILLER_0_38_177
*1319 FILLER_0_38_189
*1320 FILLER_0_38_195
*1321 FILLER_0_38_197
*1322 FILLER_0_38_209
*1323 FILLER_0_38_221
*1324 FILLER_0_38_233
*1325 FILLER_0_38_245
*1326 FILLER_0_38_251
*1327 FILLER_0_38_253
*1328 FILLER_0_38_265
*1329 FILLER_0_38_27
*1330 FILLER_0_38_277
*1331 FILLER_0_38_289
*1332 FILLER_0_38_29
*1333 FILLER_0_38_3
*1334 FILLER_0_38_301
*1335 FILLER_0_38_307
*1336 FILLER_0_38_309
*1337 FILLER_0_38_321
*1338 FILLER_0_38_333
*1339 FILLER_0_38_345
*1340 FILLER_0_38_41
*1341 FILLER_0_38_53
*1342 FILLER_0_38_65
*1343 FILLER_0_38_77
*1344 FILLER_0_38_83
*1345 FILLER_0_38_85
*1346 FILLER_0_38_97
*1347 FILLER_0_39_105
*1348 FILLER_0_39_111
*1349 FILLER_0_39_113
*1350 FILLER_0_39_125
*1351 FILLER_0_39_137
*1352 FILLER_0_39_149
*1353 FILLER_0_39_15
*1354 FILLER_0_39_161
*1355 FILLER_0_39_167
*1356 FILLER_0_39_169
*1357 FILLER_0_39_181
*1358 FILLER_0_39_193
*1359 FILLER_0_39_205
*1360 FILLER_0_39_217
*1361 FILLER_0_39_223
*1362 FILLER_0_39_225
*1363 FILLER_0_39_237
*1364 FILLER_0_39_249
*1365 FILLER_0_39_261
*1366 FILLER_0_39_27
*1367 FILLER_0_39_273
*1368 FILLER_0_39_279
*1369 FILLER_0_39_281
*1370 FILLER_0_39_293
*1371 FILLER_0_39_3
*1372 FILLER_0_39_305
*1373 FILLER_0_39_317
*1374 FILLER_0_39_329
*1375 FILLER_0_39_335
*1376 FILLER_0_39_337
*1377 FILLER_0_39_349
*1378 FILLER_0_39_39
*1379 FILLER_0_39_51
*1380 FILLER_0_39_55
*1381 FILLER_0_39_57
*1382 FILLER_0_39_69
*1383 FILLER_0_39_81
*1384 FILLER_0_39_93
*1385 FILLER_0_3_105
*1386 FILLER_0_3_111
*1387 FILLER_0_3_113
*1388 FILLER_0_3_125
*1389 FILLER_0_3_137
*1390 FILLER_0_3_149
*1391 FILLER_0_3_15
*1392 FILLER_0_3_161
*1393 FILLER_0_3_167
*1394 FILLER_0_3_169
*1395 FILLER_0_3_181
*1396 FILLER_0_3_193
*1397 FILLER_0_3_205
*1398 FILLER_0_3_217
*1399 FILLER_0_3_223
*1400 FILLER_0_3_225
*1401 FILLER_0_3_237
*1402 FILLER_0_3_249
*1403 FILLER_0_3_261
*1404 FILLER_0_3_27
*1405 FILLER_0_3_273
*1406 FILLER_0_3_279
*1407 FILLER_0_3_281
*1408 FILLER_0_3_293
*1409 FILLER_0_3_3
*1410 FILLER_0_3_305
*1411 FILLER_0_3_317
*1412 FILLER_0_3_329
*1413 FILLER_0_3_335
*1414 FILLER_0_3_337
*1415 FILLER_0_3_349
*1416 FILLER_0_3_39
*1417 FILLER_0_3_51
*1418 FILLER_0_3_55
*1419 FILLER_0_3_57
*1420 FILLER_0_3_69
*1421 FILLER_0_3_81
*1422 FILLER_0_3_93
*1423 FILLER_0_40_109
*1424 FILLER_0_40_121
*1425 FILLER_0_40_133
*1426 FILLER_0_40_139
*1427 FILLER_0_40_141
*1428 FILLER_0_40_15
*1429 FILLER_0_40_153
*1430 FILLER_0_40_165
*1431 FILLER_0_40_177
*1432 FILLER_0_40_189
*1433 FILLER_0_40_195
*1434 FILLER_0_40_197
*1435 FILLER_0_40_209
*1436 FILLER_0_40_221
*1437 FILLER_0_40_233
*1438 FILLER_0_40_245
*1439 FILLER_0_40_251
*1440 FILLER_0_40_253
*1441 FILLER_0_40_265
*1442 FILLER_0_40_27
*1443 FILLER_0_40_277
*1444 FILLER_0_40_289
*1445 FILLER_0_40_29
*1446 FILLER_0_40_3
*1447 FILLER_0_40_301
*1448 FILLER_0_40_307
*1449 FILLER_0_40_309
*1450 FILLER_0_40_321
*1451 FILLER_0_40_333
*1452 FILLER_0_40_345
*1453 FILLER_0_40_41
*1454 FILLER_0_40_53
*1455 FILLER_0_40_65
*1456 FILLER_0_40_77
*1457 FILLER_0_40_83
*1458 FILLER_0_40_85
*1459 FILLER_0_40_97
*1460 FILLER_0_41_105
*1461 FILLER_0_41_111
*1462 FILLER_0_41_113
*1463 FILLER_0_41_125
*1464 FILLER_0_41_137
*1465 FILLER_0_41_149
*1466 FILLER_0_41_15
*1467 FILLER_0_41_161
*1468 FILLER_0_41_167
*1469 FILLER_0_41_169
*1470 FILLER_0_41_181
*1471 FILLER_0_41_193
*1472 FILLER_0_41_205
*1473 FILLER_0_41_217
*1474 FILLER_0_41_223
*1475 FILLER_0_41_225
*1476 FILLER_0_41_237
*1477 FILLER_0_41_249
*1478 FILLER_0_41_261
*1479 FILLER_0_41_27
*1480 FILLER_0_41_273