*SPEF "ieee 1481-1999"
*DESIGN "tt_um_wokwi_375326293008530433"
*DATE "11:11:11 Fri 11 11, 1111"
*VENDOR "OpenRCX"
*PROGRAM "Parallel Extraction"
*VERSION "1.0"
*DESIGN_FLOW "NAME_SCOPE LOCAL" "PIN_CAP NONE"
*DIVIDER /
*DELIMITER :
*BUS_DELIMITER []
*T_UNIT 1 NS
*C_UNIT 1 PF
*R_UNIT 1 OHM
*L_UNIT 1 HENRY

*NAME_MAP
*3 clk
*4 ena
*5 rst_n
*6 ui_in[0]
*7 ui_in[1]
*8 ui_in[2]
*9 ui_in[3]
*10 ui_in[4]
*11 ui_in[5]
*12 ui_in[6]
*13 ui_in[7]
*14 uio_in[0]
*15 uio_in[1]
*16 uio_in[2]
*17 uio_in[3]
*18 uio_in[4]
*19 uio_in[5]
*20 uio_in[6]
*21 uio_in[7]
*22 net9
*23 net10
*24 net11
*25 net12
*26 net13
*27 net14
*28 net15
*29 net16
*30 net17
*31 net18
*32 net19
*33 net20
*34 net21
*35 net22
*36 net23
*37 net24
*38 uo_out[0]
*39 uo_out[1]
*40 uo_out[2]
*41 uo_out[3]
*42 uo_out[4]
*43 uo_out[5]
*44 uo_out[6]
*45 uo_out[7]
*46 _00_
*47 _01_
*48 _02_
*49 _03_
*50 _04_
*51 _05_
*52 _06_
*53 _07_
*54 _08_
*55 _09_
*56 flipflop1\.q
*57 flipflop10\.q
*58 flipflop11\.q
*59 flipflop2\.d
*60 flipflop2\.q
*61 flipflop3\.d
*62 flipflop3\.q
*63 flipflop4\.d
*64 flipflop4\.q
*65 flipflop5\.q
*66 gate6\.out
*67 net1
*68 net2
*69 net3
*70 net4
*71 net5
*72 net6
*73 net7
*74 net8
*75 FILLER_0_0_109
*76 FILLER_0_0_113
*77 FILLER_0_0_125
*78 FILLER_0_0_137
*79 FILLER_0_0_141
*80 FILLER_0_0_15
*81 FILLER_0_0_153
*82 FILLER_0_0_165
*83 FILLER_0_0_169
*84 FILLER_0_0_181
*85 FILLER_0_0_193
*86 FILLER_0_0_197
*87 FILLER_0_0_209
*88 FILLER_0_0_221
*89 FILLER_0_0_225
*90 FILLER_0_0_237
*91 FILLER_0_0_249
*92 FILLER_0_0_253
*93 FILLER_0_0_265
*94 FILLER_0_0_27
*95 FILLER_0_0_277
*96 FILLER_0_0_281
*97 FILLER_0_0_29
*98 FILLER_0_0_293
*99 FILLER_0_0_3
*100 FILLER_0_0_305
*101 FILLER_0_0_309
*102 FILLER_0_0_321
*103 FILLER_0_0_333
*104 FILLER_0_0_337
*105 FILLER_0_0_349
*106 FILLER_0_0_41
*107 FILLER_0_0_53
*108 FILLER_0_0_57
*109 FILLER_0_0_69
*110 FILLER_0_0_81
*111 FILLER_0_0_85
*112 FILLER_0_0_97
*113 FILLER_0_10_109
*114 FILLER_0_10_121
*115 FILLER_0_10_133
*116 FILLER_0_10_139
*117 FILLER_0_10_141
*118 FILLER_0_10_15
*119 FILLER_0_10_153
*120 FILLER_0_10_165
*121 FILLER_0_10_177
*122 FILLER_0_10_189
*123 FILLER_0_10_195
*124 FILLER_0_10_197
*125 FILLER_0_10_209
*126 FILLER_0_10_221
*127 FILLER_0_10_233
*128 FILLER_0_10_245
*129 FILLER_0_10_251
*130 FILLER_0_10_253
*131 FILLER_0_10_265
*132 FILLER_0_10_27
*133 FILLER_0_10_277
*134 FILLER_0_10_289
*135 FILLER_0_10_29
*136 FILLER_0_10_3
*137 FILLER_0_10_301
*138 FILLER_0_10_307
*139 FILLER_0_10_309
*140 FILLER_0_10_321
*141 FILLER_0_10_333
*142 FILLER_0_10_345
*143 FILLER_0_10_41
*144 FILLER_0_10_53
*145 FILLER_0_10_65
*146 FILLER_0_10_77
*147 FILLER_0_10_83
*148 FILLER_0_10_85
*149 FILLER_0_10_97
*150 FILLER_0_11_105
*151 FILLER_0_11_111
*152 FILLER_0_11_113
*153 FILLER_0_11_125
*154 FILLER_0_11_137
*155 FILLER_0_11_149
*156 FILLER_0_11_15
*157 FILLER_0_11_161
*158 FILLER_0_11_167
*159 FILLER_0_11_169
*160 FILLER_0_11_181
*161 FILLER_0_11_193
*162 FILLER_0_11_205
*163 FILLER_0_11_217
*164 FILLER_0_11_223
*165 FILLER_0_11_225
*166 FILLER_0_11_237
*167 FILLER_0_11_249
*168 FILLER_0_11_261
*169 FILLER_0_11_27
*170 FILLER_0_11_273
*171 FILLER_0_11_279
*172 FILLER_0_11_281
*173 FILLER_0_11_293
*174 FILLER_0_11_3
*175 FILLER_0_11_305
*176 FILLER_0_11_317
*177 FILLER_0_11_329
*178 FILLER_0_11_335
*179 FILLER_0_11_337
*180 FILLER_0_11_349
*181 FILLER_0_11_39
*182 FILLER_0_11_51
*183 FILLER_0_11_55
*184 FILLER_0_11_57
*185 FILLER_0_11_69
*186 FILLER_0_11_81
*187 FILLER_0_11_93
*188 FILLER_0_12_109
*189 FILLER_0_12_121
*190 FILLER_0_12_133
*191 FILLER_0_12_139
*192 FILLER_0_12_141
*193 FILLER_0_12_15
*194 FILLER_0_12_153
*195 FILLER_0_12_165
*196 FILLER_0_12_177
*197 FILLER_0_12_189
*198 FILLER_0_12_195
*199 FILLER_0_12_197
*200 FILLER_0_12_209
*201 FILLER_0_12_221
*202 FILLER_0_12_233
*203 FILLER_0_12_245
*204 FILLER_0_12_251
*205 FILLER_0_12_253
*206 FILLER_0_12_265
*207 FILLER_0_12_27
*208 FILLER_0_12_277
*209 FILLER_0_12_289
*210 FILLER_0_12_29
*211 FILLER_0_12_3
*212 FILLER_0_12_301
*213 FILLER_0_12_307
*214 FILLER_0_12_309
*215 FILLER_0_12_321
*216 FILLER_0_12_333
*217 FILLER_0_12_345
*218 FILLER_0_12_41
*219 FILLER_0_12_53
*220 FILLER_0_12_65
*221 FILLER_0_12_77
*222 FILLER_0_12_83
*223 FILLER_0_12_85
*224 FILLER_0_12_97
*225 FILLER_0_13_105
*226 FILLER_0_13_111
*227 FILLER_0_13_113
*228 FILLER_0_13_125
*229 FILLER_0_13_137
*230 FILLER_0_13_149
*231 FILLER_0_13_15
*232 FILLER_0_13_161
*233 FILLER_0_13_167
*234 FILLER_0_13_169
*235 FILLER_0_13_181
*236 FILLER_0_13_193
*237 FILLER_0_13_205
*238 FILLER_0_13_217
*239 FILLER_0_13_223
*240 FILLER_0_13_225
*241 FILLER_0_13_237
*242 FILLER_0_13_249
*243 FILLER_0_13_261
*244 FILLER_0_13_27
*245 FILLER_0_13_273
*246 FILLER_0_13_279
*247 FILLER_0_13_281
*248 FILLER_0_13_293
*249 FILLER_0_13_3
*250 FILLER_0_13_305
*251 FILLER_0_13_317
*252 FILLER_0_13_329
*253 FILLER_0_13_335
*254 FILLER_0_13_337
*255 FILLER_0_13_349
*256 FILLER_0_13_39
*257 FILLER_0_13_51
*258 FILLER_0_13_55
*259 FILLER_0_13_57
*260 FILLER_0_13_69
*261 FILLER_0_13_81
*262 FILLER_0_13_93
*263 FILLER_0_14_109
*264 FILLER_0_14_121
*265 FILLER_0_14_133
*266 FILLER_0_14_139
*267 FILLER_0_14_141
*268 FILLER_0_14_15
*269 FILLER_0_14_153
*270 FILLER_0_14_165
*271 FILLER_0_14_177
*272 FILLER_0_14_189
*273 FILLER_0_14_195
*274 FILLER_0_14_197
*275 FILLER_0_14_209
*276 FILLER_0_14_221
*277 FILLER_0_14_233
*278 FILLER_0_14_245
*279 FILLER_0_14_251
*280 FILLER_0_14_253
*281 FILLER_0_14_265
*282 FILLER_0_14_27
*283 FILLER_0_14_277
*284 FILLER_0_14_289
*285 FILLER_0_14_29
*286 FILLER_0_14_3
*287 FILLER_0_14_301
*288 FILLER_0_14_307
*289 FILLER_0_14_309
*290 FILLER_0_14_321
*291 FILLER_0_14_333
*292 FILLER_0_14_345
*293 FILLER_0_14_41
*294 FILLER_0_14_53
*295 FILLER_0_14_65
*296 FILLER_0_14_77
*297 FILLER_0_14_83
*298 FILLER_0_14_85
*299 FILLER_0_14_97
*300 FILLER_0_15_105
*301 FILLER_0_15_111
*302 FILLER_0_15_113
*303 FILLER_0_15_125
*304 FILLER_0_15_137
*305 FILLER_0_15_149
*306 FILLER_0_15_15
*307 FILLER_0_15_161
*308 FILLER_0_15_167
*309 FILLER_0_15_169
*310 FILLER_0_15_181
*311 FILLER_0_15_193
*312 FILLER_0_15_205
*313 FILLER_0_15_217
*314 FILLER_0_15_223
*315 FILLER_0_15_225
*316 FILLER_0_15_237
*317 FILLER_0_15_249
*318 FILLER_0_15_261
*319 FILLER_0_15_27
*320 FILLER_0_15_273
*321 FILLER_0_15_279
*322 FILLER_0_15_281
*323 FILLER_0_15_293
*324 FILLER_0_15_3
*325 FILLER_0_15_305
*326 FILLER_0_15_317
*327 FILLER_0_15_329
*328 FILLER_0_15_335
*329 FILLER_0_15_337
*330 FILLER_0_15_349
*331 FILLER_0_15_39
*332 FILLER_0_15_51
*333 FILLER_0_15_55
*334 FILLER_0_15_57
*335 FILLER_0_15_69
*336 FILLER_0_15_81
*337 FILLER_0_15_93
*338 FILLER_0_16_109
*339 FILLER_0_16_121
*340 FILLER_0_16_133
*341 FILLER_0_16_139
*342 FILLER_0_16_141
*343 FILLER_0_16_15
*344 FILLER_0_16_153
*345 FILLER_0_16_165
*346 FILLER_0_16_177
*347 FILLER_0_16_189
*348 FILLER_0_16_195
*349 FILLER_0_16_197
*350 FILLER_0_16_209
*351 FILLER_0_16_221
*352 FILLER_0_16_233
*353 FILLER_0_16_245
*354 FILLER_0_16_251
*355 FILLER_0_16_253
*356 FILLER_0_16_265
*357 FILLER_0_16_27
*358 FILLER_0_16_277
*359 FILLER_0_16_289
*360 FILLER_0_16_29
*361 FILLER_0_16_3
*362 FILLER_0_16_301
*363 FILLER_0_16_307
*364 FILLER_0_16_309
*365 FILLER_0_16_321
*366 FILLER_0_16_333
*367 FILLER_0_16_345
*368 FILLER_0_16_41
*369 FILLER_0_16_53
*370 FILLER_0_16_65
*371 FILLER_0_16_77
*372 FILLER_0_16_83
*373 FILLER_0_16_85
*374 FILLER_0_16_97
*375 FILLER_0_17_105
*376 FILLER_0_17_111
*377 FILLER_0_17_113
*378 FILLER_0_17_125
*379 FILLER_0_17_137
*380 FILLER_0_17_149
*381 FILLER_0_17_15
*382 FILLER_0_17_161
*383 FILLER_0_17_167
*384 FILLER_0_17_169
*385 FILLER_0_17_181
*386 FILLER_0_17_193
*387 FILLER_0_17_205
*388 FILLER_0_17_217
*389 FILLER_0_17_223
*390 FILLER_0_17_225
*391 FILLER_0_17_237
*392 FILLER_0_17_249
*393 FILLER_0_17_261
*394 FILLER_0_17_27
*395 FILLER_0_17_273
*396 FILLER_0_17_279
*397 FILLER_0_17_281
*398 FILLER_0_17_293
*399 FILLER_0_17_3
*400 FILLER_0_17_305
*401 FILLER_0_17_317
*402 FILLER_0_17_329
*403 FILLER_0_17_335
*404 FILLER_0_17_337
*405 FILLER_0_17_349
*406 FILLER_0_17_39
*407 FILLER_0_17_51
*408 FILLER_0_17_55
*409 FILLER_0_17_57
*410 FILLER_0_17_69
*411 FILLER_0_17_81
*412 FILLER_0_17_93
*413 FILLER_0_18_109
*414 FILLER_0_18_121
*415 FILLER_0_18_133
*416 FILLER_0_18_139
*417 FILLER_0_18_141
*418 FILLER_0_18_15
*419 FILLER_0_18_153
*420 FILLER_0_18_165
*421 FILLER_0_18_177
*422 FILLER_0_18_189
*423 FILLER_0_18_195
*424 FILLER_0_18_197
*425 FILLER_0_18_209
*426 FILLER_0_18_221
*427 FILLER_0_18_233
*428 FILLER_0_18_245
*429 FILLER_0_18_251
*430 FILLER_0_18_253
*431 FILLER_0_18_265
*432 FILLER_0_18_27
*433 FILLER_0_18_277
*434 FILLER_0_18_289
*435 FILLER_0_18_29
*436 FILLER_0_18_3
*437 FILLER_0_18_301
*438 FILLER_0_18_307
*439 FILLER_0_18_309
*440 FILLER_0_18_321
*441 FILLER_0_18_333
*442 FILLER_0_18_345
*443 FILLER_0_18_41
*444 FILLER_0_18_53
*445 FILLER_0_18_65
*446 FILLER_0_18_77
*447 FILLER_0_18_83
*448 FILLER_0_18_85
*449 FILLER_0_18_97
*450 FILLER_0_19_105
*451 FILLER_0_19_111
*452 FILLER_0_19_113
*453 FILLER_0_19_125
*454 FILLER_0_19_137
*455 FILLER_0_19_149
*456 FILLER_0_19_15
*457 FILLER_0_19_161
*458 FILLER_0_19_167
*459 FILLER_0_19_169
*460 FILLER_0_19_181
*461 FILLER_0_19_193
*462 FILLER_0_19_205
*463 FILLER_0_19_217
*464 FILLER_0_19_223
*465 FILLER_0_19_225
*466 FILLER_0_19_237
*467 FILLER_0_19_249
*468 FILLER_0_19_261
*469 FILLER_0_19_27
*470 FILLER_0_19_273
*471 FILLER_0_19_279
*472 FILLER_0_19_281
*473 FILLER_0_19_293
*474 FILLER_0_19_3
*475 FILLER_0_19_305
*476 FILLER_0_19_317
*477 FILLER_0_19_329
*478 FILLER_0_19_335
*479 FILLER_0_19_337
*480 FILLER_0_19_349
*481 FILLER_0_19_39
*482 FILLER_0_19_51
*483 FILLER_0_19_55
*484 FILLER_0_19_57
*485 FILLER_0_19_69
*486 FILLER_0_19_81
*487 FILLER_0_19_93
*488 FILLER_0_1_105
*489 FILLER_0_1_111
*490 FILLER_0_1_113
*491 FILLER_0_1_125
*492 FILLER_0_1_137
*493 FILLER_0_1_149
*494 FILLER_0_1_15
*495 FILLER_0_1_161
*496 FILLER_0_1_167
*497 FILLER_0_1_169
*498 FILLER_0_1_181
*499 FILLER_0_1_193
*500 FILLER_0_1_205
*501 FILLER_0_1_217
*502 FILLER_0_1_223
*503 FILLER_0_1_225
*504 FILLER_0_1_237
*505 FILLER_0_1_249
*506 FILLER_0_1_261
*507 FILLER_0_1_27
*508 FILLER_0_1_273
*509 FILLER_0_1_279
*510 FILLER_0_1_281
*511 FILLER_0_1_293
*512 FILLER_0_1_3
*513 FILLER_0_1_305
*514 FILLER_0_1_317
*515 FILLER_0_1_329
*516 FILLER_0_1_335
*517 FILLER_0_1_337
*518 FILLER_0_1_349
*519 FILLER_0_1_39
*520 FILLER_0_1_51
*521 FILLER_0_1_55
*522 FILLER_0_1_57
*523 FILLER_0_1_69
*524 FILLER_0_1_81
*525 FILLER_0_1_93
*526 FILLER_0_20_109
*527 FILLER_0_20_121
*528 FILLER_0_20_133
*529 FILLER_0_20_139
*530 FILLER_0_20_141
*531 FILLER_0_20_15
*532 FILLER_0_20_153
*533 FILLER_0_20_165
*534 FILLER_0_20_177
*535 FILLER_0_20_189
*536 FILLER_0_20_195
*537 FILLER_0_20_197
*538 FILLER_0_20_209
*539 FILLER_0_20_221
*540 FILLER_0_20_233
*541 FILLER_0_20_245
*542 FILLER_0_20_251
*543 FILLER_0_20_253
*544 FILLER_0_20_265
*545 FILLER_0_20_27
*546 FILLER_0_20_277
*547 FILLER_0_20_289
*548 FILLER_0_20_29
*549 FILLER_0_20_3
*550 FILLER_0_20_301
*551 FILLER_0_20_307
*552 FILLER_0_20_309
*553 FILLER_0_20_321
*554 FILLER_0_20_333
*555 FILLER_0_20_345
*556 FILLER_0_20_41
*557 FILLER_0_20_53
*558 FILLER_0_20_65
*559 FILLER_0_20_77
*560 FILLER_0_20_83
*561 FILLER_0_20_85
*562 FILLER_0_20_97
*563 FILLER_0_21_105
*564 FILLER_0_21_111
*565 FILLER_0_21_113
*566 FILLER_0_21_125
*567 FILLER_0_21_137
*568 FILLER_0_21_149
*569 FILLER_0_21_15
*570 FILLER_0_21_161
*571 FILLER_0_21_167
*572 FILLER_0_21_169
*573 FILLER_0_21_181
*574 FILLER_0_21_193
*575 FILLER_0_21_205
*576 FILLER_0_21_217
*577 FILLER_0_21_223
*578 FILLER_0_21_225
*579 FILLER_0_21_237
*580 FILLER_0_21_249
*581 FILLER_0_21_261
*582 FILLER_0_21_27
*583 FILLER_0_21_273
*584 FILLER_0_21_279
*585 FILLER_0_21_281
*586 FILLER_0_21_293
*587 FILLER_0_21_3
*588 FILLER_0_21_305
*589 FILLER_0_21_317
*590 FILLER_0_21_329
*591 FILLER_0_21_335
*592 FILLER_0_21_337
*593 FILLER_0_21_349
*594 FILLER_0_21_39
*595 FILLER_0_21_51
*596 FILLER_0_21_55
*597 FILLER_0_21_57
*598 FILLER_0_21_69
*599 FILLER_0_21_81
*600 FILLER_0_21_93
*601 FILLER_0_22_109
*602 FILLER_0_22_121
*603 FILLER_0_22_133
*604 FILLER_0_22_139
*605 FILLER_0_22_141
*606 FILLER_0_22_15
*607 FILLER_0_22_153
*608 FILLER_0_22_165
*609 FILLER_0_22_177
*610 FILLER_0_22_189
*611 FILLER_0_22_195
*612 FILLER_0_22_197
*613 FILLER_0_22_209
*614 FILLER_0_22_221
*615 FILLER_0_22_233
*616 FILLER_0_22_245
*617 FILLER_0_22_251
*618 FILLER_0_22_253
*619 FILLER_0_22_265
*620 FILLER_0_22_27
*621 FILLER_0_22_277
*622 FILLER_0_22_289
*623 FILLER_0_22_29
*624 FILLER_0_22_3
*625 FILLER_0_22_301
*626 FILLER_0_22_307
*627 FILLER_0_22_309
*628 FILLER_0_22_321
*629 FILLER_0_22_333
*630 FILLER_0_22_345
*631 FILLER_0_22_41
*632 FILLER_0_22_53
*633 FILLER_0_22_65
*634 FILLER_0_22_77
*635 FILLER_0_22_83
*636 FILLER_0_22_85
*637 FILLER_0_22_97
*638 FILLER_0_23_105
*639 FILLER_0_23_111
*640 FILLER_0_23_113
*641 FILLER_0_23_125
*642 FILLER_0_23_137
*643 FILLER_0_23_149
*644 FILLER_0_23_15
*645 FILLER_0_23_161
*646 FILLER_0_23_167
*647 FILLER_0_23_169
*648 FILLER_0_23_181
*649 FILLER_0_23_193
*650 FILLER_0_23_205
*651 FILLER_0_23_217
*652 FILLER_0_23_223
*653 FILLER_0_23_225
*654 FILLER_0_23_237
*655 FILLER_0_23_249
*656 FILLER_0_23_261
*657 FILLER_0_23_27
*658 FILLER_0_23_273
*659 FILLER_0_23_279
*660 FILLER_0_23_281
*661 FILLER_0_23_293
*662 FILLER_0_23_3
*663 FILLER_0_23_305
*664 FILLER_0_23_317
*665 FILLER_0_23_329
*666 FILLER_0_23_335
*667 FILLER_0_23_337
*668 FILLER_0_23_349
*669 FILLER_0_23_39
*670 FILLER_0_23_51
*671 FILLER_0_23_55
*672 FILLER_0_23_57
*673 FILLER_0_23_69
*674 FILLER_0_23_81
*675 FILLER_0_23_93
*676 FILLER_0_24_109
*677 FILLER_0_24_121
*678 FILLER_0_24_133
*679 FILLER_0_24_139
*680 FILLER_0_24_141
*681 FILLER_0_24_15
*682 FILLER_0_24_153
*683 FILLER_0_24_165
*684 FILLER_0_24_177
*685 FILLER_0_24_189
*686 FILLER_0_24_195
*687 FILLER_0_24_197
*688 FILLER_0_24_209
*689 FILLER_0_24_221
*690 FILLER_0_24_233
*691 FILLER_0_24_245
*692 FILLER_0_24_251
*693 FILLER_0_24_253
*694 FILLER_0_24_265
*695 FILLER_0_24_27
*696 FILLER_0_24_277
*697 FILLER_0_24_289
*698 FILLER_0_24_29
*699 FILLER_0_24_3
*700 FILLER_0_24_301
*701 FILLER_0_24_307
*702 FILLER_0_24_309
*703 FILLER_0_24_321
*704 FILLER_0_24_333
*705 FILLER_0_24_345
*706 FILLER_0_24_41
*707 FILLER_0_24_53
*708 FILLER_0_24_65
*709 FILLER_0_24_77
*710 FILLER_0_24_83
*711 FILLER_0_24_85
*712 FILLER_0_24_97
*713 FILLER_0_25_105
*714 FILLER_0_25_111
*715 FILLER_0_25_113
*716 FILLER_0_25_125
*717 FILLER_0_25_137
*718 FILLER_0_25_149
*719 FILLER_0_25_15
*720 FILLER_0_25_161
*721 FILLER_0_25_167
*722 FILLER_0_25_169
*723 FILLER_0_25_181
*724 FILLER_0_25_193
*725 FILLER_0_25_205
*726 FILLER_0_25_217
*727 FILLER_0_25_223
*728 FILLER_0_25_225
*729 FILLER_0_25_237
*730 FILLER_0_25_249
*731 FILLER_0_25_261
*732 FILLER_0_25_27
*733 FILLER_0_25_273
*734 FILLER_0_25_279
*735 FILLER_0_25_281
*736 FILLER_0_25_293
*737 FILLER_0_25_3
*738 FILLER_0_25_305
*739 FILLER_0_25_317
*740 FILLER_0_25_329
*741 FILLER_0_25_335
*742 FILLER_0_25_337
*743 FILLER_0_25_349
*744 FILLER_0_25_39
*745 FILLER_0_25_51
*746 FILLER_0_25_55
*747 FILLER_0_25_57
*748 FILLER_0_25_69
*749 FILLER_0_25_81
*750 FILLER_0_25_93
*751 FILLER_0_26_109
*752 FILLER_0_26_121
*753 FILLER_0_26_133
*754 FILLER_0_26_139
*755 FILLER_0_26_141
*756 FILLER_0_26_15
*757 FILLER_0_26_153
*758 FILLER_0_26_165
*759 FILLER_0_26_177
*760 FILLER_0_26_189
*761 FILLER_0_26_195
*762 FILLER_0_26_197
*763 FILLER_0_26_209
*764 FILLER_0_26_221
*765 FILLER_0_26_233
*766 FILLER_0_26_245
*767 FILLER_0_26_251
*768 FILLER_0_26_253
*769 FILLER_0_26_265
*770 FILLER_0_26_27
*771 FILLER_0_26_277
*772 FILLER_0_26_289
*773 FILLER_0_26_29
*774 FILLER_0_26_3
*775 FILLER_0_26_301
*776 FILLER_0_26_307
*777 FILLER_0_26_309
*778 FILLER_0_26_321
*779 FILLER_0_26_333
*780 FILLER_0_26_345
*781 FILLER_0_26_41
*782 FILLER_0_26_53
*783 FILLER_0_26_65
*784 FILLER_0_26_77
*785 FILLER_0_26_83
*786 FILLER_0_26_85
*787 FILLER_0_26_97
*788 FILLER_0_27_105
*789 FILLER_0_27_111
*790 FILLER_0_27_113
*791 FILLER_0_27_125
*792 FILLER_0_27_137
*793 FILLER_0_27_149
*794 FILLER_0_27_15
*795 FILLER_0_27_161
*796 FILLER_0_27_167
*797 FILLER_0_27_169
*798 FILLER_0_27_181
*799 FILLER_0_27_193
*800 FILLER_0_27_205
*801 FILLER_0_27_217
*802 FILLER_0_27_223
*803 FILLER_0_27_225
*804 FILLER_0_27_237
*805 FILLER_0_27_249
*806 FILLER_0_27_261
*807 FILLER_0_27_27
*808 FILLER_0_27_273
*809 FILLER_0_27_279
*810 FILLER_0_27_281
*811 FILLER_0_27_293
*812 FILLER_0_27_3
*813 FILLER_0_27_305
*814 FILLER_0_27_317
*815 FILLER_0_27_329
*816 FILLER_0_27_335
*817 FILLER_0_27_337
*818 FILLER_0_27_349
*819 FILLER_0_27_39
*820 FILLER_0_27_51
*821 FILLER_0_27_55
*822 FILLER_0_27_57
*823 FILLER_0_27_69
*824 FILLER_0_27_81
*825 FILLER_0_27_93
*826 FILLER_0_28_109
*827 FILLER_0_28_121
*828 FILLER_0_28_133
*829 FILLER_0_28_139
*830 FILLER_0_28_141
*831 FILLER_0_28_15
*832 FILLER_0_28_153
*833 FILLER_0_28_165
*834 FILLER_0_28_177
*835 FILLER_0_28_189
*836 FILLER_0_28_195
*837 FILLER_0_28_197
*838 FILLER_0_28_209
*839 FILLER_0_28_221
*840 FILLER_0_28_233
*841 FILLER_0_28_245
*842 FILLER_0_28_251
*843 FILLER_0_28_253
*844 FILLER_0_28_265
*845 FILLER_0_28_27
*846 FILLER_0_28_277
*847 FILLER_0_28_289
*848 FILLER_0_28_29
*849 FILLER_0_28_3
*850 FILLER_0_28_301
*851 FILLER_0_28_307
*852 FILLER_0_28_309
*853 FILLER_0_28_321
*854 FILLER_0_28_333
*855 FILLER_0_28_345
*856 FILLER_0_28_41
*857 FILLER_0_28_53
*858 FILLER_0_28_65
*859 FILLER_0_28_77
*860 FILLER_0_28_83
*861 FILLER_0_28_85
*862 FILLER_0_28_97
*863 FILLER_0_29_105
*864 FILLER_0_29_111
*865 FILLER_0_29_113
*866 FILLER_0_29_125
*867 FILLER_0_29_137
*868 FILLER_0_29_149
*869 FILLER_0_29_15
*870 FILLER_0_29_161
*871 FILLER_0_29_167
*872 FILLER_0_29_169
*873 FILLER_0_29_181
*874 FILLER_0_29_193
*875 FILLER_0_29_205
*876 FILLER_0_29_217
*877 FILLER_0_29_223
*878 FILLER_0_29_225
*879 FILLER_0_29_237
*880 FILLER_0_29_249
*881 FILLER_0_29_261
*882 FILLER_0_29_27
*883 FILLER_0_29_273
*884 FILLER_0_29_279
*885 FILLER_0_29_281
*886 FILLER_0_29_293
*887 FILLER_0_29_3
*888 FILLER_0_29_305
*889 FILLER_0_29_317
*890 FILLER_0_29_329
*891 FILLER_0_29_335
*892 FILLER_0_29_337
*893 FILLER_0_29_349
*894 FILLER_0_29_39
*895 FILLER_0_29_51
*896 FILLER_0_29_55
*897 FILLER_0_29_57
*898 FILLER_0_29_69
*899 FILLER_0_29_81
*900 FILLER_0_29_93
*901 FILLER_0_2_109
*902 FILLER_0_2_121
*903 FILLER_0_2_133
*904 FILLER_0_2_139
*905 FILLER_0_2_141
*906 FILLER_0_2_15
*907 FILLER_0_2_153
*908 FILLER_0_2_165
*909 FILLER_0_2_177
*910 FILLER_0_2_189
*911 FILLER_0_2_195
*912 FILLER_0_2_197
*913 FILLER_0_2_209
*914 FILLER_0_2_221
*915 FILLER_0_2_233
*916 FILLER_0_2_245
*917 FILLER_0_2_251
*918 FILLER_0_2_253
*919 FILLER_0_2_265
*920 FILLER_0_2_27
*921 FILLER_0_2_277
*922 FILLER_0_2_289
*923 FILLER_0_2_29
*924 FILLER_0_2_3
*925 FILLER_0_2_301
*926 FILLER_0_2_307
*927 FILLER_0_2_309
*928 FILLER_0_2_321
*929 FILLER_0_2_333
*930 FILLER_0_2_345
*931 FILLER_0_2_41
*932 FILLER_0_2_53
*933 FILLER_0_2_65
*934 FILLER_0_2_77
*935 FILLER_0_2_83
*936 FILLER_0_2_85
*937 FILLER_0_2_97
*938 FILLER_0_30_109
*939 FILLER_0_30_121
*940 FILLER_0_30_133
*941 FILLER_0_30_139
*942 FILLER_0_30_141
*943 FILLER_0_30_15
*944 FILLER_0_30_153
*945 FILLER_0_30_165
*946 FILLER_0_30_177
*947 FILLER_0_30_189
*948 FILLER_0_30_195
*949 FILLER_0_30_197
*950 FILLER_0_30_209
*951 FILLER_0_30_221
*952 FILLER_0_30_233
*953 FILLER_0_30_245
*954 FILLER_0_30_251
*955 FILLER_0_30_253
*956 FILLER_0_30_265
*957 FILLER_0_30_27
*958 FILLER_0_30_277
*959 FILLER_0_30_289
*960 FILLER_0_30_29
*961 FILLER_0_30_3
*962 FILLER_0_30_301
*963 FILLER_0_30_307
*964 FILLER_0_30_309
*965 FILLER_0_30_321
*966 FILLER_0_30_333
*967 FILLER_0_30_345
*968 FILLER_0_30_41
*969 FILLER_0_30_53
*970 FILLER_0_30_65
*971 FILLER_0_30_77
*972 FILLER_0_30_83
*973 FILLER_0_30_85
*974 FILLER_0_30_97
*975 FILLER_0_31_105
*976 FILLER_0_31_111
*977 FILLER_0_31_113
*978 FILLER_0_31_125
*979 FILLER_0_31_137
*980 FILLER_0_31_149
*981 FILLER_0_31_15
*982 FILLER_0_31_161
*983 FILLER_0_31_167
*984 FILLER_0_31_169
*985 FILLER_0_31_181
*986 FILLER_0_31_193
*987 FILLER_0_31_205
*988 FILLER_0_31_217
*989 FILLER_0_31_223
*990 FILLER_0_31_225
*991 FILLER_0_31_237
*992 FILLER_0_31_249
*993 FILLER_0_31_261
*994 FILLER_0_31_27
*995 FILLER_0_31_273
*996 FILLER_0_31_279
*997 FILLER_0_31_281
*998 FILLER_0_31_293
*999 FILLER_0_31_3
*1000 FILLER_0_31_305
*1001 FILLER_0_31_317
*1002 FILLER_0_31_329
*1003 FILLER_0_31_335
*1004 FILLER_0_31_337
*1005 FILLER_0_31_349
*1006 FILLER_0_31_39
*1007 FILLER_0_31_51
*1008 FILLER_0_31_55
*1009 FILLER_0_31_57
*1010 FILLER_0_31_69
*1011 FILLER_0_31_81
*1012 FILLER_0_31_93
*1013 FILLER_0_32_109
*1014 FILLER_0_32_121
*1015 FILLER_0_32_133
*1016 FILLER_0_32_139
*1017 FILLER_0_32_141
*1018 FILLER_0_32_15
*1019 FILLER_0_32_153
*1020 FILLER_0_32_165
*1021 FILLER_0_32_177
*1022 FILLER_0_32_189
*1023 FILLER_0_32_195
*1024 FILLER_0_32_197
*1025 FILLER_0_32_209
*1026 FILLER_0_32_221
*1027 FILLER_0_32_233
*1028 FILLER_0_32_245
*1029 FILLER_0_32_251
*1030 FILLER_0_32_253
*1031 FILLER_0_32_265
*1032 FILLER_0_32_27
*1033 FILLER_0_32_277
*1034 FILLER_0_32_289
*1035 FILLER_0_32_29
*1036 FILLER_0_32_3
*1037 FILLER_0_32_301
*1038 FILLER_0_32_307
*1039 FILLER_0_32_309
*1040 FILLER_0_32_321
*1041 FILLER_0_32_333
*1042 FILLER_0_32_345
*1043 FILLER_0_32_41
*1044 FILLER_0_32_53
*1045 FILLER_0_32_65
*1046 FILLER_0_32_77
*1047 FILLER_0_32_83
*1048 FILLER_0_32_85
*1049 FILLER_0_32_97
*1050 FILLER_0_33_105
*1051 FILLER_0_33_111
*1052 FILLER_0_33_113
*1053 FILLER_0_33_125
*1054 FILLER_0_33_137
*1055 FILLER_0_33_149
*1056 FILLER_0_33_15
*1057 FILLER_0_33_161
*1058 FILLER_0_33_167
*1059 FILLER_0_33_169
*1060 FILLER_0_33_181
*1061 FILLER_0_33_193
*1062 FILLER_0_33_205
*1063 FILLER_0_33_217
*1064 FILLER_0_33_223
*1065 FILLER_0_33_225
*1066 FILLER_0_33_237
*1067 FILLER_0_33_249
*1068 FILLER_0_33_261
*1069 FILLER_0_33_27
*1070 FILLER_0_33_273
*1071 FILLER_0_33_279
*1072 FILLER_0_33_281
*1073 FILLER_0_33_293
*1074 FILLER_0_33_3
*1075 FILLER_0_33_305
*1076 FILLER_0_33_317
*1077 FILLER_0_33_329
*1078 FILLER_0_33_335
*1079 FILLER_0_33_337
*1080 FILLER_0_33_349
*1081 FILLER_0_33_39
*1082 FILLER_0_33_51
*1083 FILLER_0_33_55
*1084 FILLER_0_33_57
*1085 FILLER_0_33_69
*1086 FILLER_0_33_81
*1087 FILLER_0_33_93
*1088 FILLER_0_34_109
*1089 FILLER_0_34_121
*1090 FILLER_0_34_133
*1091 FILLER_0_34_139
*1092 FILLER_0_34_141
*1093 FILLER_0_34_15
*1094 FILLER_0_34_153
*1095 FILLER_0_34_165
*1096 FILLER_0_34_177
*1097 FILLER_0_34_189
*1098 FILLER_0_34_195
*1099 FILLER_0_34_197
*1100 FILLER_0_34_209
*1101 FILLER_0_34_221
*1102 FILLER_0_34_233
*1103 FILLER_0_34_245
*1104 FILLER_0_34_251
*1105 FILLER_0_34_253
*1106 FILLER_0_34_265
*1107 FILLER_0_34_27
*1108 FILLER_0_34_277
*1109 FILLER_0_34_289
*1110 FILLER_0_34_29
*1111 FILLER_0_34_3
*1112 FILLER_0_34_301
*1113 FILLER_0_34_307
*1114 FILLER_0_34_309
*1115 FILLER_0_34_321
*1116 FILLER_0_34_333
*1117 FILLER_0_34_345
*1118 FILLER_0_34_41
*1119 FILLER_0_34_53
*1120 FILLER_0_34_65
*1121 FILLER_0_34_77
*1122 FILLER_0_34_83
*1123 FILLER_0_34_85
*1124 FILLER_0_34_97
*1125 FILLER_0_35_105
*1126 FILLER_0_35_111
*1127 FILLER_0_35_113
*1128 FILLER_0_35_125
*1129 FILLER_0_35_137
*1130 FILLER_0_35_149
*1131 FILLER_0_35_15
*1132 FILLER_0_35_161
*1133 FILLER_0_35_167
*1134 FILLER_0_35_169
*1135 FILLER_0_35_181
*1136 FILLER_0_35_193
*1137 FILLER_0_35_205
*1138 FILLER_0_35_213
*1139 FILLER_0_35_217
*1140 FILLER_0_35_223
*1141 FILLER_0_35_225
*1142 FILLER_0_35_237
*1143 FILLER_0_35_249
*1144 FILLER_0_35_261
*1145 FILLER_0_35_27
*1146 FILLER_0_35_273
*1147 FILLER_0_35_279
*1148 FILLER_0_35_281
*1149 FILLER_0_35_293
*1150 FILLER_0_35_3
*1151 FILLER_0_35_305
*1152 FILLER_0_35_317
*1153 FILLER_0_35_329
*1154 FILLER_0_35_335
*1155 FILLER_0_35_337
*1156 FILLER_0_35_349
*1157 FILLER_0_35_39
*1158 FILLER_0_35_51
*1159 FILLER_0_35_55
*1160 FILLER_0_35_57
*1161 FILLER_0_35_69
*1162 FILLER_0_35_81
*1163 FILLER_0_35_93
*1164 FILLER_0_36_109
*1165 FILLER_0_36_121
*1166 FILLER_0_36_133
*1167 FILLER_0_36_139
*1168 FILLER_0_36_141
*1169 FILLER_0_36_15
*1170 FILLER_0_36_153
*1171 FILLER_0_36_165
*1172 FILLER_0_36_177
*1173 FILLER_0_36_197
*1174 FILLER_0_36_225
*1175 FILLER_0_36_237
*1176 FILLER_0_36_249
*1177 FILLER_0_36_253
*1178 FILLER_0_36_265
*1179 FILLER_0_36_269
*1180 FILLER_0_36_27
*1181 FILLER_0_36_281
*1182 FILLER_0_36_29
*1183 FILLER_0_36_293
*1184 FILLER_0_36_3
*1185 FILLER_0_36_305
*1186 FILLER_0_36_309
*1187 FILLER_0_36_321
*1188 FILLER_0_36_333
*1189 FILLER_0_36_345
*1190 FILLER_0_36_41
*1191 FILLER_0_36_53
*1192 FILLER_0_36_65
*1193 FILLER_0_36_77
*1194 FILLER_0_36_83
*1195 FILLER_0_36_85
*1196 FILLER_0_36_97
*1197 FILLER_0_37_105
*1198 FILLER_0_37_111
*1199 FILLER_0_37_113
*1200 FILLER_0_37_125
*1201 FILLER_0_37_137
*1202 FILLER_0_37_149
*1203 FILLER_0_37_15
*1204 FILLER_0_37_161
*1205 FILLER_0_37_167
*1206 FILLER_0_37_185
*1207 FILLER_0_37_191
*1208 FILLER_0_37_202
*1209 FILLER_0_37_214
*1210 FILLER_0_37_222
*1211 FILLER_0_37_242
*1212 FILLER_0_37_262
*1213 FILLER_0_37_27
*1214 FILLER_0_37_281
*1215 FILLER_0_37_290
*1216 FILLER_0_37_3
*1217 FILLER_0_37_302
*1218 FILLER_0_37_314
*1219 FILLER_0_37_326
*1220 FILLER_0_37_334
*1221 FILLER_0_37_337
*1222 FILLER_0_37_349
*1223 FILLER_0_37_39
*1224 FILLER_0_37_51
*1225 FILLER_0_37_55
*1226 FILLER_0_37_57
*1227 FILLER_0_37_69
*1228 FILLER_0_37_81
*1229 FILLER_0_37_93
*1230 FILLER_0_38_102
*1231 FILLER_0_38_106
*1232 FILLER_0_38_110
*1233 FILLER_0_38_113
*1234 FILLER_0_38_118
*1235 FILLER_0_38_122
*1236 FILLER_0_38_126
*1237 FILLER_0_38_130
*1238 FILLER_0_38_134
*1239 FILLER_0_38_14
*1240 FILLER_0_38_145
*1241 FILLER_0_38_153
*1242 FILLER_0_38_160
*1243 FILLER_0_38_167
*1244 FILLER_0_38_169
*1245 FILLER_0_38_174
*1246 FILLER_0_38_18
*1247 FILLER_0_38_182
*1248 FILLER_0_38_192
*1249 FILLER_0_38_201
*1250 FILLER_0_38_219
*1251 FILLER_0_38_22
*1252 FILLER_0_38_223
*1253 FILLER_0_38_225
*1254 FILLER_0_38_231
*1255 FILLER_0_38_248
*1256 FILLER_0_38_262
*1257 FILLER_0_38_279
*1258 FILLER_0_38_3
*1259 FILLER_0_38_306
*1260 FILLER_0_38_312
*1261 FILLER_0_38_318
*1262 FILLER_0_38_32
*1263 FILLER_0_38_322
*1264 FILLER_0_38_326
*1265 FILLER_0_38_334
*1266 FILLER_0_38_337
*1267 FILLER_0_38_349
*1268 FILLER_0_38_38
*1269 FILLER_0_38_42
*1270 FILLER_0_38_46
*1271 FILLER_0_38_50
*1272 FILLER_0_38_54
*1273 FILLER_0_38_57
*1274 FILLER_0_38_62
*1275 FILLER_0_38_66
*1276 FILLER_0_38_70
*1277 FILLER_0_38_74
*1278 FILLER_0_38_78
*1279 FILLER_0_38_88
*1280 FILLER_0_38_94
*1281 FILLER_0_38_98
*1282 FILLER_0_3_105
*1283 FILLER_0_3_111
*1284 FILLER_0_3_113
*1285 FILLER_0_3_125
*1286 FILLER_0_3_137
*1287 FILLER_0_3_149
*1288 FILLER_0_3_15
*1289 FILLER_0_3_161
*1290 FILLER_0_3_167
*1291 FILLER_0_3_169
*1292 FILLER_0_3_181
*1293 FILLER_0_3_193
*1294 FILLER_0_3_205
*1295 FILLER_0_3_217
*1296 FILLER_0_3_223
*1297 FILLER_0_3_225
*1298 FILLER_0_3_237
*1299 FILLER_0_3_249
*1300 FILLER_0_3_261
*1301 FILLER_0_3_27
*1302 FILLER_0_3_273
*1303 FILLER_0_3_279
*1304 FILLER_0_3_281
*1305 FILLER_0_3_293
*1306 FILLER_0_3_3
*1307 FILLER_0_3_305
*1308 FILLER_0_3_317
*1309 FILLER_0_3_329
*1310 FILLER_0_3_335
*1311 FILLER_0_3_337
*1312 FILLER_0_3_349
*1313 FILLER_0_3_39
*1314 FILLER_0_3_51
*1315 FILLER_0_3_55
*1316 FILLER_0_3_57
*1317 FILLER_0_3_69
*1318 FILLER_0_3_81
*1319 FILLER_0_3_93
*1320 FILLER_0_4_109
*1321 FILLER_0_4_121
*1322 FILLER_0_4_133
*1323 FILLER_0_4_139
*1324 FILLER_0_4_141
*1325 FILLER_0_4_15
*1326 FILLER_0_4_153
*1327 FILLER_0_4_165
*1328 FILLER_0_4_177
*1329 FILLER_0_4_189
*1330 FILLER_0_4_195
*1331 FILLER_0_4_197
*1332 FILLER_0_4_209
*1333 FILLER_0_4_221
*1334 FILLER_0_4_233
*1335 FILLER_0_4_245
*1336 FILLER_0_4_251
*1337 FILLER_0_4_253
*1338 FILLER_0_4_265
*1339 FILLER_0_4_27
*1340 FILLER_0_4_277
*1341 FILLER_0_4_289
*1342 FILLER_0_4_29
*1343 FILLER_0_4_3
*1344 FILLER_0_4_301
*1345 FILLER_0_4_307
*1346 FILLER_0_4_309
*1347 FILLER_0_4_321
*1348 FILLER_0_4_333
*1349 FILLER_0_4_345
*1350 FILLER_0_4_41
*1351 FILLER_0_4_53
*1352 FILLER_0_4_65
*1353 FILLER_0_4_77
*1354 FILLER_0_4_83
*1355 FILLER_0_4_85
*1356 FILLER_0_4_97
*1357 FILLER_0_5_105
*1358 FILLER_0_5_111
*1359 FILLER_0_5_113
*1360 FILLER_0_5_125
*1361 FILLER_0_5_137
*1362 FILLER_0_5_149
*1363 FILLER_0_5_15
*1364 FILLER_0_5_161
*1365 FILLER_0_5_167
*1366 FILLER_0_5_169
*1367 FILLER_0_5_181
*1368 FILLER_0_5_193
*1369 FILLER_0_5_205
*1370 FILLER_0_5_217
*1371 FILLER_0_5_223
*1372 FILLER_0_5_225
*1373 FILLER_0_5_237
*1374 FILLER_0_5_249
*1375 FILLER_0_5_261
*1376 FILLER_0_5_27
*1377 FILLER_0_5_273
*1378 FILLER_0_5_279
*1379 FILLER_0_5_281
*1380 FILLER_0_5_293
*1381 FILLER_0_5_3
*1382 FILLER_0_5_305
*1383 FILLER_0_5_317
*1384 FILLER_0_5_329
*1385 FILLER_0_5_335
*1386 FILLER_0_5_337
*1387 FILLER_0_5_349
*1388 FILLER_0_5_39
*1389 FILLER_0_5_51
*1390 FILLER_0_5_55
*1391 FILLER_0_5_57
*1392 FILLER_0_5_69
*1393 FILLER_0_5_81
*1394 FILLER_0_5_93
*1395 FILLER_0_6_109
*1396 FILLER_0_6_121
*1397 FILLER_0_6_133
*1398 FILLER_0_6_139
*1399 FILLER_0_6_141
*1400 FILLER_0_6_15
*1401 FILLER_0_6_153
*1402 FILLER_0_6_165
*1403 FILLER_0_6_177
*1404 FILLER_0_6_189
*1405 FILLER_0_6_195
*1406 FILLER_0_6_197
*1407 FILLER_0_6_209
*1408 FILLER_0_6_221
*1409 FILLER_0_6_233
*1410 FILLER_0_6_245
*1411 FILLER_0_6_251
*1412 FILLER_0_6_253
*1413 FILLER_0_6_265
*1414 FILLER_0_6_27
*1415 FILLER_0_6_277
*1416 FILLER_0_6_289
*1417 FILLER_0_6_29
*1418 FILLER_0_6_3
*1419 FILLER_0_6_301
*1420 FILLER_0_6_307
*1421 FILLER_0_6_309
*1422 FILLER_0_6_321
*1423 FILLER_0_6_333
*1424 FILLER_0_6_345
*1425 FILLER_0_6_41
*1426 FILLER_0_6_53
*1427 FILLER_0_6_65
*1428 FILLER_0_6_77
*1429 FILLER_0_6_83
*1430 FILLER_0_6_85
*1431 FILLER_0_6_97
*1432 FILLER_0_7_105
*1433 FILLER_0_7_111
*1434 FILLER_0_7_113
*1435 FILLER_0_7_125
*1436 FILLER_0_7_137
*1437 FILLER_0_7_149
*1438 FILLER_0_7_15
*1439 FILLER_0_7_161
*1440 FILLER_0_7_167
*1441 FILLER_0_7_169
*1442 FILLER_0_7_181
*1443 FILLER_0_7_193
*1444 FILLER_0_7_205
*1445 FILLER_0_7_217
*1446 FILLER_0_7_223
*1447 FILLER_0_7_225
*1448 FILLER_0_7_237
*1449 FILLER_0_7_249
*1450 FILLER_0_7_261
*1451 FILLER_0_7_27
*1452 FILLER_0_7_273
*1453 FILLER_0_7_279
*1454 FILLER_0_7_281
*1455 FILLER_0_7_293
*1456 FILLER_0_7_3
*1457 FILLER_0_7_305
*1458 FILLER_0_7_317
*1459 FILLER_0_7_329
*1460 FILLER_0_7_335