*SPEF "ieee 1481-1999"
*DESIGN "tt_um_fm_transmitter"
*DATE "11:11:11 Fri 11 11, 1111"
*VENDOR "OpenRCX"
*PROGRAM "Parallel Extraction"
*VERSION "1.0"
*DESIGN_FLOW "NAME_SCOPE LOCAL" "PIN_CAP NONE"
*DIVIDER /
*DELIMITER :
*BUS_DELIMITER []
*T_UNIT 1 NS
*C_UNIT 1 PF
*R_UNIT 1 OHM
*L_UNIT 1 HENRY

*NAME_MAP
*3 clk
*4 ena
*5 rst_n
*6 ui_in[0]
*7 ui_in[1]
*8 ui_in[2]
*9 ui_in[3]
*10 ui_in[4]
*11 ui_in[5]
*12 ui_in[6]
*13 ui_in[7]
*14 uio_in[0]
*15 uio_in[1]
*16 uio_in[2]
*17 uio_in[3]
*18 uio_in[4]
*19 uio_in[5]
*20 uio_in[6]
*21 uio_in[7]
*22 net15
*23 net16
*24 net17
*25 net18
*26 net19
*27 net20
*28 net21
*29 net22
*30 net23
*31 net24
*32 net25
*33 net26
*34 net27
*35 net28
*36 net29
*37 net30
*38 uo_out[0]
*39 uo_out[1]
*40 uo_out[2]
*41 uo_out[3]
*42 uo_out[4]
*43 uo_out[5]
*44 uo_out[6]
*45 uo_out[7]
*46 _000_
*47 _001_
*48 _002_
*49 _003_
*50 _004_
*51 _005_
*52 _006_
*53 _007_
*54 _008_
*55 _009_
*56 _010_
*57 _011_
*58 _012_
*59 _013_
*60 _014_
*61 _015_
*62 _016_
*63 _017_
*64 _018_
*65 _019_
*66 _020_
*67 _021_
*68 _022_
*69 _023_
*70 _024_
*71 _025_
*72 _026_
*73 _027_
*74 _028_
*75 _029_
*76 _030_
*77 _031_
*78 _032_
*79 _033_
*80 _034_
*81 _035_
*82 _036_
*83 _037_
*84 _038_
*85 _039_
*86 _040_
*87 _041_
*88 _042_
*89 _043_
*90 _044_
*91 _045_
*92 _046_
*93 _047_
*94 _048_
*95 _049_
*96 _050_
*97 _051_
*98 _052_
*99 _053_
*100 _054_
*101 _055_
*102 _056_
*103 _057_
*104 _058_
*105 _059_
*106 _060_
*107 _061_
*108 _062_
*109 _063_
*110 _064_
*111 _065_
*112 _066_
*113 _067_
*114 _068_
*115 _069_
*116 _070_
*117 _071_
*118 _072_
*119 _073_
*120 _074_
*121 _075_
*122 _076_
*123 _077_
*124 _078_
*125 _079_
*126 _080_
*127 _081_
*128 _082_
*129 _083_
*130 _084_
*131 _085_
*132 _086_
*133 _087_
*134 _088_
*135 _089_
*136 _090_
*137 _091_
*138 _092_
*139 _093_
*140 _094_
*141 _095_
*142 _096_
*143 _097_
*144 _098_
*145 _099_
*146 _100_
*147 _101_
*148 _102_
*149 _103_
*150 _104_
*151 _105_
*152 _106_
*153 _107_
*154 _108_
*155 _109_
*156 _110_
*157 _111_
*158 _112_
*159 _113_
*160 _114_
*161 _115_
*162 _116_
*163 _117_
*164 _118_
*165 _119_
*166 _120_
*167 _121_
*168 _122_
*169 _123_
*170 _124_
*171 _125_
*172 _126_
*173 _127_
*174 _128_
*175 _129_
*176 _130_
*177 _131_
*178 _132_
*179 _133_
*180 _134_
*181 _135_
*182 _136_
*183 _137_
*184 _138_
*185 _139_
*186 _140_
*187 _141_
*188 _142_
*189 _143_
*190 _144_
*191 _145_
*192 _146_
*193 _147_
*194 _148_
*195 _149_
*196 _150_
*197 _151_
*198 _152_
*199 _153_
*200 _154_
*201 _155_
*202 _156_
*203 _157_
*204 _158_
*205 _159_
*206 _160_
*207 _161_
*208 _162_
*209 _163_
*210 _164_
*211 _165_
*212 _166_
*213 _167_
*214 _168_
*215 _169_
*216 _170_
*217 _171_
*218 _172_
*219 _173_
*220 _174_
*221 _175_
*222 _176_
*223 _177_
*224 _178_
*225 _179_
*226 _180_
*227 _181_
*228 _182_
*229 _183_
*230 _184_
*231 _185_
*232 _186_
*233 _187_
*234 _188_
*235 _189_
*236 _190_
*237 _191_
*238 _192_
*239 _193_
*240 _194_
*241 _195_
*242 _196_
*243 _197_
*244 _198_
*245 _199_
*246 _200_
*247 _201_
*248 _202_
*249 _203_
*250 _204_
*251 _205_
*252 _206_
*253 _207_
*254 _208_
*255 _209_
*256 _210_
*257 _211_
*258 _212_
*259 _213_
*260 _214_
*261 _215_
*262 _216_
*263 _217_
*264 _218_
*265 _219_
*266 _220_
*267 _221_
*268 _222_
*269 _223_
*270 _224_
*271 _225_
*272 _226_
*273 _227_
*274 _228_
*275 _229_
*276 _230_
*277 _231_
*278 _232_
*279 _233_
*280 _234_
*281 _235_
*282 _236_
*283 _237_
*284 _238_
*285 _239_
*286 _240_
*287 _241_
*288 _242_
*289 _243_
*290 _244_
*291 _245_
*292 _246_
*293 _247_
*294 _248_
*295 _249_
*296 _250_
*297 _251_
*298 _252_
*299 _253_
*300 _254_
*301 _255_
*302 _256_
*303 _257_
*304 _258_
*305 _259_
*306 _260_
*307 _261_
*308 _262_
*309 _263_
*310 _264_
*311 _265_
*312 _266_
*313 _267_
*314 _268_
*315 _269_
*316 _270_
*317 _271_
*318 _272_
*319 _273_
*320 _274_
*321 _275_
*322 _276_
*323 _277_
*324 _278_
*325 _279_
*326 _280_
*327 _281_
*328 _282_
*329 _283_
*330 _284_
*331 _285_
*332 _286_
*333 _287_
*334 _288_
*335 _289_
*336 _290_
*337 _291_
*338 _292_
*339 _293_
*340 _294_
*341 _295_
*342 _296_
*343 _297_
*344 _298_
*345 _299_
*346 _300_
*347 _301_
*348 _302_
*349 _303_
*350 _304_
*351 _305_
*352 _306_
*353 _307_
*354 _308_
*355 _309_
*356 _310_
*357 _311_
*358 _312_
*359 _313_
*360 _314_
*361 _315_
*362 _316_
*363 _317_
*364 clknet_0_clk
*365 clknet_1_0__leaf_clk
*366 clknet_1_1__leaf_clk
*367 fm_modulator_inst\.audio\[0\]
*368 fm_modulator_inst\.audio\[1\]
*369 fm_modulator_inst\.audio\[2\]
*370 fm_modulator_inst\.audio\[3\]
*371 fm_modulator_inst\.audio\[4\]
*372 fm_modulator_inst\.audio\[5\]
*373 fm_modulator_inst\.audio\[6\]
*374 fm_modulator_inst\.audio\[7\]
*375 fm_modulator_inst\.fm_fun\[0\]
*376 fm_modulator_inst\.fm_out\[0\]
*377 fm_modulator_inst\.fm_out\[1\]
*378 fm_modulator_inst\.fm_out\[2\]
*379 fm_modulator_inst\.fm_out\[3\]
*380 fm_modulator_inst\.fm_out\[4\]
*381 fm_modulator_inst\.fm_out\[5\]
*382 fm_modulator_inst\.fm_out\[6\]
*383 fm_modulator_inst\.fm_out\[7\]
*384 fm_modulator_inst\.phase_acc\[0\]
*385 fm_modulator_inst\.phase_acc\[10\]
*386 fm_modulator_inst\.phase_acc\[11\]
*387 fm_modulator_inst\.phase_acc\[12\]
*388 fm_modulator_inst\.phase_acc\[13\]
*389 fm_modulator_inst\.phase_acc\[14\]
*390 fm_modulator_inst\.phase_acc\[15\]
*391 fm_modulator_inst\.phase_acc\[16\]
*392 fm_modulator_inst\.phase_acc\[17\]
*393 fm_modulator_inst\.phase_acc\[1\]
*394 fm_modulator_inst\.phase_acc\[2\]
*395 fm_modulator_inst\.phase_acc\[3\]
*396 fm_modulator_inst\.phase_acc\[4\]
*397 fm_modulator_inst\.phase_acc\[5\]
*398 fm_modulator_inst\.phase_acc\[6\]
*399 fm_modulator_inst\.phase_acc\[7\]
*400 fm_modulator_inst\.phase_acc\[8\]
*401 fm_modulator_inst\.phase_acc\[9\]
*402 i2s_rx_inst\.dout\[0\]
*403 i2s_rx_inst\.dout\[1\]
*404 i2s_rx_inst\.dout\[2\]
*405 i2s_rx_inst\.dout\[3\]
*406 i2s_rx_inst\.dout\[4\]
*407 i2s_rx_inst\.dout\[5\]
*408 i2s_rx_inst\.dout\[6\]
*409 i2s_rx_inst\.dout\[7\]
*410 i2s_rx_inst\.i2s_ws_del
*411 net1
*412 net10
*413 net11
*414 net12
*415 net13
*416 net14
*417 net2
*418 net3
*419 net31
*420 net4
*421 net5
*422 net6
*423 net7
*424 net8
*425 net9
*426 FILLER_0_0_109
*427 FILLER_0_0_113
*428 FILLER_0_0_125
*429 FILLER_0_0_137
*430 FILLER_0_0_141
*431 FILLER_0_0_15
*432 FILLER_0_0_153
*433 FILLER_0_0_165
*434 FILLER_0_0_169
*435 FILLER_0_0_181
*436 FILLER_0_0_193
*437 FILLER_0_0_197
*438 FILLER_0_0_209
*439 FILLER_0_0_221
*440 FILLER_0_0_225
*441 FILLER_0_0_237
*442 FILLER_0_0_249
*443 FILLER_0_0_253
*444 FILLER_0_0_265
*445 FILLER_0_0_27
*446 FILLER_0_0_277
*447 FILLER_0_0_281
*448 FILLER_0_0_29
*449 FILLER_0_0_293
*450 FILLER_0_0_3
*451 FILLER_0_0_305
*452 FILLER_0_0_309
*453 FILLER_0_0_321
*454 FILLER_0_0_333
*455 FILLER_0_0_337
*456 FILLER_0_0_349
*457 FILLER_0_0_41
*458 FILLER_0_0_53
*459 FILLER_0_0_57
*460 FILLER_0_0_69
*461 FILLER_0_0_81
*462 FILLER_0_0_85
*463 FILLER_0_0_97
*464 FILLER_0_10_109
*465 FILLER_0_10_121
*466 FILLER_0_10_133
*467 FILLER_0_10_139
*468 FILLER_0_10_141
*469 FILLER_0_10_15
*470 FILLER_0_10_153
*471 FILLER_0_10_165
*472 FILLER_0_10_177
*473 FILLER_0_10_189
*474 FILLER_0_10_195
*475 FILLER_0_10_197
*476 FILLER_0_10_209
*477 FILLER_0_10_221
*478 FILLER_0_10_233
*479 FILLER_0_10_245
*480 FILLER_0_10_251
*481 FILLER_0_10_253
*482 FILLER_0_10_265
*483 FILLER_0_10_27
*484 FILLER_0_10_277
*485 FILLER_0_10_289
*486 FILLER_0_10_29
*487 FILLER_0_10_3
*488 FILLER_0_10_301
*489 FILLER_0_10_307
*490 FILLER_0_10_309
*491 FILLER_0_10_321
*492 FILLER_0_10_333
*493 FILLER_0_10_345
*494 FILLER_0_10_41
*495 FILLER_0_10_53
*496 FILLER_0_10_65
*497 FILLER_0_10_77
*498 FILLER_0_10_83
*499 FILLER_0_10_85
*500 FILLER_0_10_97
*501 FILLER_0_11_105
*502 FILLER_0_11_111
*503 FILLER_0_11_113
*504 FILLER_0_11_125
*505 FILLER_0_11_137
*506 FILLER_0_11_149
*507 FILLER_0_11_15
*508 FILLER_0_11_161
*509 FILLER_0_11_167
*510 FILLER_0_11_169
*511 FILLER_0_11_181
*512 FILLER_0_11_193
*513 FILLER_0_11_205
*514 FILLER_0_11_217
*515 FILLER_0_11_223
*516 FILLER_0_11_225
*517 FILLER_0_11_237
*518 FILLER_0_11_249
*519 FILLER_0_11_261
*520 FILLER_0_11_27
*521 FILLER_0_11_273
*522 FILLER_0_11_279
*523 FILLER_0_11_281
*524 FILLER_0_11_293
*525 FILLER_0_11_3
*526 FILLER_0_11_305
*527 FILLER_0_11_317
*528 FILLER_0_11_329
*529 FILLER_0_11_335
*530 FILLER_0_11_337
*531 FILLER_0_11_349
*532 FILLER_0_11_39
*533 FILLER_0_11_51
*534 FILLER_0_11_55
*535 FILLER_0_11_57
*536 FILLER_0_11_69
*537 FILLER_0_11_81
*538 FILLER_0_11_93
*539 FILLER_0_12_109
*540 FILLER_0_12_121
*541 FILLER_0_12_133
*542 FILLER_0_12_139
*543 FILLER_0_12_141
*544 FILLER_0_12_15
*545 FILLER_0_12_153
*546 FILLER_0_12_165
*547 FILLER_0_12_177
*548 FILLER_0_12_189
*549 FILLER_0_12_195
*550 FILLER_0_12_197
*551 FILLER_0_12_209
*552 FILLER_0_12_221
*553 FILLER_0_12_233
*554 FILLER_0_12_245
*555 FILLER_0_12_251
*556 FILLER_0_12_253
*557 FILLER_0_12_265
*558 FILLER_0_12_27
*559 FILLER_0_12_277
*560 FILLER_0_12_289
*561 FILLER_0_12_29
*562 FILLER_0_12_3
*563 FILLER_0_12_301
*564 FILLER_0_12_307
*565 FILLER_0_12_309
*566 FILLER_0_12_321
*567 FILLER_0_12_333
*568 FILLER_0_12_345
*569 FILLER_0_12_41
*570 FILLER_0_12_53
*571 FILLER_0_12_65
*572 FILLER_0_12_77
*573 FILLER_0_12_83
*574 FILLER_0_12_85
*575 FILLER_0_12_97
*576 FILLER_0_13_105
*577 FILLER_0_13_111
*578 FILLER_0_13_113
*579 FILLER_0_13_125
*580 FILLER_0_13_137
*581 FILLER_0_13_149
*582 FILLER_0_13_15
*583 FILLER_0_13_161
*584 FILLER_0_13_167
*585 FILLER_0_13_169
*586 FILLER_0_13_181
*587 FILLER_0_13_193
*588 FILLER_0_13_205
*589 FILLER_0_13_217
*590 FILLER_0_13_223
*591 FILLER_0_13_225
*592 FILLER_0_13_237
*593 FILLER_0_13_249
*594 FILLER_0_13_261
*595 FILLER_0_13_27
*596 FILLER_0_13_273
*597 FILLER_0_13_279
*598 FILLER_0_13_281
*599 FILLER_0_13_293
*600 FILLER_0_13_3
*601 FILLER_0_13_305
*602 FILLER_0_13_317
*603 FILLER_0_13_329
*604 FILLER_0_13_335
*605 FILLER_0_13_337
*606 FILLER_0_13_349
*607 FILLER_0_13_39
*608 FILLER_0_13_51
*609 FILLER_0_13_55
*610 FILLER_0_13_57
*611 FILLER_0_13_69
*612 FILLER_0_13_81
*613 FILLER_0_13_93
*614 FILLER_0_14_109
*615 FILLER_0_14_121
*616 FILLER_0_14_133
*617 FILLER_0_14_139
*618 FILLER_0_14_141
*619 FILLER_0_14_15
*620 FILLER_0_14_153
*621 FILLER_0_14_165
*622 FILLER_0_14_177
*623 FILLER_0_14_189
*624 FILLER_0_14_195
*625 FILLER_0_14_197
*626 FILLER_0_14_209
*627 FILLER_0_14_221
*628 FILLER_0_14_233
*629 FILLER_0_14_245
*630 FILLER_0_14_251
*631 FILLER_0_14_253
*632 FILLER_0_14_265
*633 FILLER_0_14_27
*634 FILLER_0_14_277
*635 FILLER_0_14_289
*636 FILLER_0_14_29
*637 FILLER_0_14_3
*638 FILLER_0_14_301
*639 FILLER_0_14_307
*640 FILLER_0_14_309
*641 FILLER_0_14_321
*642 FILLER_0_14_333
*643 FILLER_0_14_345
*644 FILLER_0_14_41
*645 FILLER_0_14_53
*646 FILLER_0_14_65
*647 FILLER_0_14_77
*648 FILLER_0_14_83
*649 FILLER_0_14_85
*650 FILLER_0_14_97
*651 FILLER_0_15_105
*652 FILLER_0_15_111
*653 FILLER_0_15_113
*654 FILLER_0_15_125
*655 FILLER_0_15_137
*656 FILLER_0_15_149
*657 FILLER_0_15_15
*658 FILLER_0_15_161
*659 FILLER_0_15_167
*660 FILLER_0_15_169
*661 FILLER_0_15_181
*662 FILLER_0_15_193
*663 FILLER_0_15_205
*664 FILLER_0_15_217
*665 FILLER_0_15_223
*666 FILLER_0_15_225
*667 FILLER_0_15_237
*668 FILLER_0_15_249
*669 FILLER_0_15_261
*670 FILLER_0_15_27
*671 FILLER_0_15_273
*672 FILLER_0_15_279
*673 FILLER_0_15_281
*674 FILLER_0_15_293
*675 FILLER_0_15_3
*676 FILLER_0_15_305
*677 FILLER_0_15_317
*678 FILLER_0_15_329
*679 FILLER_0_15_335
*680 FILLER_0_15_337
*681 FILLER_0_15_349
*682 FILLER_0_15_39
*683 FILLER_0_15_51
*684 FILLER_0_15_55
*685 FILLER_0_15_57
*686 FILLER_0_15_69
*687 FILLER_0_15_81
*688 FILLER_0_15_93
*689 FILLER_0_16_109
*690 FILLER_0_16_121
*691 FILLER_0_16_133
*692 FILLER_0_16_139
*693 FILLER_0_16_141
*694 FILLER_0_16_15
*695 FILLER_0_16_153
*696 FILLER_0_16_165
*697 FILLER_0_16_177
*698 FILLER_0_16_189
*699 FILLER_0_16_195
*700 FILLER_0_16_197
*701 FILLER_0_16_209
*702 FILLER_0_16_221
*703 FILLER_0_16_233
*704 FILLER_0_16_245
*705 FILLER_0_16_251
*706 FILLER_0_16_253
*707 FILLER_0_16_265
*708 FILLER_0_16_27
*709 FILLER_0_16_277
*710 FILLER_0_16_289
*711 FILLER_0_16_29
*712 FILLER_0_16_3
*713 FILLER_0_16_301
*714 FILLER_0_16_307
*715 FILLER_0_16_309
*716 FILLER_0_16_321
*717 FILLER_0_16_333
*718 FILLER_0_16_345
*719 FILLER_0_16_41
*720 FILLER_0_16_53
*721 FILLER_0_16_65
*722 FILLER_0_16_77
*723 FILLER_0_16_83
*724 FILLER_0_16_85
*725 FILLER_0_16_97
*726 FILLER_0_17_105
*727 FILLER_0_17_111
*728 FILLER_0_17_113
*729 FILLER_0_17_125
*730 FILLER_0_17_137
*731 FILLER_0_17_149
*732 FILLER_0_17_15
*733 FILLER_0_17_161
*734 FILLER_0_17_167
*735 FILLER_0_17_169
*736 FILLER_0_17_181
*737 FILLER_0_17_193
*738 FILLER_0_17_205
*739 FILLER_0_17_217
*740 FILLER_0_17_223
*741 FILLER_0_17_225
*742 FILLER_0_17_236
*743 FILLER_0_17_241
*744 FILLER_0_17_258
*745 FILLER_0_17_27
*746 FILLER_0_17_270
*747 FILLER_0_17_278
*748 FILLER_0_17_281
*749 FILLER_0_17_293
*750 FILLER_0_17_3
*751 FILLER_0_17_305
*752 FILLER_0_17_317
*753 FILLER_0_17_329
*754 FILLER_0_17_335
*755 FILLER_0_17_337
*756 FILLER_0_17_349
*757 FILLER_0_17_39
*758 FILLER_0_17_51
*759 FILLER_0_17_55
*760 FILLER_0_17_57
*761 FILLER_0_17_69
*762 FILLER_0_17_81
*763 FILLER_0_17_93
*764 FILLER_0_18_109
*765 FILLER_0_18_121
*766 FILLER_0_18_133
*767 FILLER_0_18_139
*768 FILLER_0_18_141
*769 FILLER_0_18_15
*770 FILLER_0_18_153
*771 FILLER_0_18_165
*772 FILLER_0_18_177
*773 FILLER_0_18_194
*774 FILLER_0_18_197
*775 FILLER_0_18_209
*776 FILLER_0_18_217
*777 FILLER_0_18_233
*778 FILLER_0_18_250
*779 FILLER_0_18_260
*780 FILLER_0_18_27
*781 FILLER_0_18_272
*782 FILLER_0_18_280
*783 FILLER_0_18_29
*784 FILLER_0_18_294
*785 FILLER_0_18_3
*786 FILLER_0_18_306
*787 FILLER_0_18_309
*788 FILLER_0_18_321
*789 FILLER_0_18_333
*790 FILLER_0_18_345
*791 FILLER_0_18_41
*792 FILLER_0_18_53
*793 FILLER_0_18_65
*794 FILLER_0_18_77
*795 FILLER_0_18_83
*796 FILLER_0_18_85
*797 FILLER_0_18_97
*798 FILLER_0_19_105
*799 FILLER_0_19_111
*800 FILLER_0_19_113
*801 FILLER_0_19_125
*802 FILLER_0_19_137
*803 FILLER_0_19_149
*804 FILLER_0_19_15
*805 FILLER_0_19_161
*806 FILLER_0_19_167
*807 FILLER_0_19_203
*808 FILLER_0_19_207
*809 FILLER_0_19_239
*810 FILLER_0_19_258
*811 FILLER_0_19_27
*812 FILLER_0_19_270
*813 FILLER_0_19_281
*814 FILLER_0_19_3
*815 FILLER_0_19_304
*816 FILLER_0_19_316
*817 FILLER_0_19_333
*818 FILLER_0_19_337
*819 FILLER_0_19_349
*820 FILLER_0_19_39
*821 FILLER_0_19_51
*822 FILLER_0_19_55
*823 FILLER_0_19_57
*824 FILLER_0_19_69
*825 FILLER_0_19_81
*826 FILLER_0_19_93
*827 FILLER_0_1_105
*828 FILLER_0_1_111
*829 FILLER_0_1_113
*830 FILLER_0_1_125
*831 FILLER_0_1_137
*832 FILLER_0_1_149
*833 FILLER_0_1_15
*834 FILLER_0_1_161
*835 FILLER_0_1_167
*836 FILLER_0_1_169
*837 FILLER_0_1_181
*838 FILLER_0_1_193
*839 FILLER_0_1_205
*840 FILLER_0_1_217
*841 FILLER_0_1_223
*842 FILLER_0_1_225
*843 FILLER_0_1_237
*844 FILLER_0_1_249
*845 FILLER_0_1_261
*846 FILLER_0_1_27
*847 FILLER_0_1_273
*848 FILLER_0_1_279
*849 FILLER_0_1_281
*850 FILLER_0_1_293
*851 FILLER_0_1_3
*852 FILLER_0_1_305
*853 FILLER_0_1_317
*854 FILLER_0_1_329
*855 FILLER_0_1_335
*856 FILLER_0_1_337
*857 FILLER_0_1_349
*858 FILLER_0_1_39
*859 FILLER_0_1_51
*860 FILLER_0_1_55
*861 FILLER_0_1_57
*862 FILLER_0_1_69
*863 FILLER_0_1_81
*864 FILLER_0_1_93
*865 FILLER_0_20_109
*866 FILLER_0_20_121
*867 FILLER_0_20_133
*868 FILLER_0_20_139
*869 FILLER_0_20_141
*870 FILLER_0_20_15
*871 FILLER_0_20_153
*872 FILLER_0_20_159
*873 FILLER_0_20_195
*874 FILLER_0_20_197
*875 FILLER_0_20_209
*876 FILLER_0_20_221
*877 FILLER_0_20_238
*878 FILLER_0_20_249
*879 FILLER_0_20_253
*880 FILLER_0_20_265
*881 FILLER_0_20_27
*882 FILLER_0_20_277
*883 FILLER_0_20_29
*884 FILLER_0_20_299
*885 FILLER_0_20_3
*886 FILLER_0_20_307
*887 FILLER_0_20_309
*888 FILLER_0_20_313
*889 FILLER_0_20_317
*890 FILLER_0_20_339
*891 FILLER_0_20_41
*892 FILLER_0_20_53
*893 FILLER_0_20_65
*894 FILLER_0_20_77
*895 FILLER_0_20_83
*896 FILLER_0_20_85
*897 FILLER_0_20_97
*898 FILLER_0_21_105
*899 FILLER_0_21_111
*900 FILLER_0_21_113
*901 FILLER_0_21_125
*902 FILLER_0_21_137
*903 FILLER_0_21_149
*904 FILLER_0_21_15
*905 FILLER_0_21_161
*906 FILLER_0_21_167
*907 FILLER_0_21_169
*908 FILLER_0_21_191
*909 FILLER_0_21_203
*910 FILLER_0_21_211
*911 FILLER_0_21_221
*912 FILLER_0_21_225
*913 FILLER_0_21_237
*914 FILLER_0_21_249
*915 FILLER_0_21_264
*916 FILLER_0_21_27
*917 FILLER_0_21_276
*918 FILLER_0_21_3
*919 FILLER_0_21_302
*920 FILLER_0_21_314
*921 FILLER_0_21_333
*922 FILLER_0_21_337
*923 FILLER_0_21_349
*924 FILLER_0_21_39
*925 FILLER_0_21_51
*926 FILLER_0_21_55
*927 FILLER_0_21_57
*928 FILLER_0_21_69
*929 FILLER_0_21_81
*930 FILLER_0_21_93
*931 FILLER_0_22_109
*932 FILLER_0_22_121
*933 FILLER_0_22_141
*934 FILLER_0_22_145
*935 FILLER_0_22_15
*936 FILLER_0_22_162
*937 FILLER_0_22_174
*938 FILLER_0_22_188
*939 FILLER_0_22_197
*940 FILLER_0_22_224
*941 FILLER_0_22_234
*942 FILLER_0_22_246
*943 FILLER_0_22_27
*944 FILLER_0_22_29
*945 FILLER_0_22_296
*946 FILLER_0_22_3
*947 FILLER_0_22_309
*948 FILLER_0_22_321
*949 FILLER_0_22_343
*950 FILLER_0_22_41
*951 FILLER_0_22_53
*952 FILLER_0_22_65
*953 FILLER_0_22_77
*954 FILLER_0_22_83
*955 FILLER_0_22_85
*956 FILLER_0_22_97
*957 FILLER_0_23_101
*958 FILLER_0_23_111
*959 FILLER_0_23_113
*960 FILLER_0_23_121
*961 FILLER_0_23_128
*962 FILLER_0_23_140
*963 FILLER_0_23_15
*964 FILLER_0_23_152
*965 FILLER_0_23_158
*966 FILLER_0_23_169
*967 FILLER_0_23_181
*968 FILLER_0_23_185
*969 FILLER_0_23_193
*970 FILLER_0_23_205
*971 FILLER_0_23_211
*972 FILLER_0_23_219
*973 FILLER_0_23_223
*974 FILLER_0_23_245
*975 FILLER_0_23_27
*976 FILLER_0_23_279
*977 FILLER_0_23_286
*978 FILLER_0_23_294
*979 FILLER_0_23_298
*980 FILLER_0_23_3
*981 FILLER_0_23_304
*982 FILLER_0_23_311
*983 FILLER_0_23_323
*984 FILLER_0_23_327
*985 FILLER_0_23_335
*986 FILLER_0_23_340
*987 FILLER_0_23_348
*988 FILLER_0_23_39
*989 FILLER_0_23_51
*990 FILLER_0_23_55
*991 FILLER_0_23_57
*992 FILLER_0_23_69
*993 FILLER_0_23_81
*994 FILLER_0_23_93
*995 FILLER_0_24_112
*996 FILLER_0_24_116
*997 FILLER_0_24_134
*998 FILLER_0_24_141
*999 FILLER_0_24_15
*1000 FILLER_0_24_170
*1001 FILLER_0_24_185
*1002 FILLER_0_24_193
*1003 FILLER_0_24_197
*1004 FILLER_0_24_218
*1005 FILLER_0_24_226
*1006 FILLER_0_24_236
*1007 FILLER_0_24_244
*1008 FILLER_0_24_251
*1009 FILLER_0_24_27
*1010 FILLER_0_24_29
*1011 FILLER_0_24_3
*1012 FILLER_0_24_302
*1013 FILLER_0_24_316
*1014 FILLER_0_24_324
*1015 FILLER_0_24_332
*1016 FILLER_0_24_345
*1017 FILLER_0_24_41
*1018 FILLER_0_24_53
*1019 FILLER_0_24_65
*1020 FILLER_0_24_77
*1021 FILLER_0_24_83
*1022 FILLER_0_24_85
*1023 FILLER_0_24_93
*1024 FILLER_0_25_103
*1025 FILLER_0_25_144
*1026 FILLER_0_25_15
*1027 FILLER_0_25_167
*1028 FILLER_0_25_174
*1029 FILLER_0_25_186
*1030 FILLER_0_25_194
*1031 FILLER_0_25_207
*1032 FILLER_0_25_213
*1033 FILLER_0_25_221
*1034 FILLER_0_25_231
*1035 FILLER_0_25_239
*1036 FILLER_0_25_252
*1037 FILLER_0_25_260
*1038 FILLER_0_25_27
*1039 FILLER_0_25_276
*1040 FILLER_0_25_281
*1041 FILLER_0_25_293
*1042 FILLER_0_25_3
*1043 FILLER_0_25_307
*1044 FILLER_0_25_311
*1045 FILLER_0_25_323
*1046 FILLER_0_25_331
*1047 FILLER_0_25_335
*1048 FILLER_0_25_345
*1049 FILLER_0_25_39
*1050 FILLER_0_25_51
*1051 FILLER_0_25_55
*1052 FILLER_0_25_57
*1053 FILLER_0_25_69
*1054 FILLER_0_25_73
*1055 FILLER_0_25_91
*1056 FILLER_0_26_105
*1057 FILLER_0_26_121
*1058 FILLER_0_26_139
*1059 FILLER_0_26_141
*1060 FILLER_0_26_15
*1061 FILLER_0_26_153
*1062 FILLER_0_26_172
*1063 FILLER_0_26_184
*1064 FILLER_0_26_197
*1065 FILLER_0_26_217
*1066 FILLER_0_26_236
*1067 FILLER_0_26_244
*1068 FILLER_0_26_259
*1069 FILLER_0_26_265
*1070 FILLER_0_26_27
*1071 FILLER_0_26_29
*1072 FILLER_0_26_3
*1073 FILLER_0_26_304
*1074 FILLER_0_26_309
*1075 FILLER_0_26_321
*1076 FILLER_0_26_346
*1077 FILLER_0_26_350
*1078 FILLER_0_26_41
*1079 FILLER_0_26_53
*1080 FILLER_0_26_65
*1081 FILLER_0_26_78
*1082 FILLER_0_26_85
*1083 FILLER_0_26_97
*1084 FILLER_0_27_105
*1085 FILLER_0_27_111
*1086 FILLER_0_27_113
*1087 FILLER_0_27_125
*1088 FILLER_0_27_140
*1089 FILLER_0_27_15
*1090 FILLER_0_27_161
*1091 FILLER_0_27_167
*1092 FILLER_0_27_169
*1093 FILLER_0_27_181
*1094 FILLER_0_27_189
*1095 FILLER_0_27_196
*1096 FILLER_0_27_222
*1097 FILLER_0_27_231
*1098 FILLER_0_27_27
*1099 FILLER_0_27_274
*1100 FILLER_0_27_281
*1101 FILLER_0_27_285
*1102 FILLER_0_27_3
*1103 FILLER_0_27_312
*1104 FILLER_0_27_324
*1105 FILLER_0_27_334
*1106 FILLER_0_27_342
*1107 FILLER_0_27_350
*1108 FILLER_0_27_39
*1109 FILLER_0_27_51
*1110 FILLER_0_27_55
*1111 FILLER_0_27_57
*1112 FILLER_0_27_65
*1113 FILLER_0_28_105
*1114 FILLER_0_28_117
*1115 FILLER_0_28_129
*1116 FILLER_0_28_137
*1117 FILLER_0_28_15
*1118 FILLER_0_28_161
*1119 FILLER_0_28_168
*1120 FILLER_0_28_180
*1121 FILLER_0_28_188
*1122 FILLER_0_28_197
*1123 FILLER_0_28_232
*1124 FILLER_0_28_27
*1125 FILLER_0_28_275
*1126 FILLER_0_28_29
*1127 FILLER_0_28_3
*1128 FILLER_0_28_307
*1129 FILLER_0_28_318
*1130 FILLER_0_28_322
*1131 FILLER_0_28_330
*1132 FILLER_0_28_342
*1133 FILLER_0_28_350
*1134 FILLER_0_28_41
*1135 FILLER_0_28_53
*1136 FILLER_0_28_65
*1137 FILLER_0_28_73
*1138 FILLER_0_28_82
*1139 FILLER_0_29_101
*1140 FILLER_0_29_109
*1141 FILLER_0_29_113
*1142 FILLER_0_29_119
*1143 FILLER_0_29_133
*1144 FILLER_0_29_15
*1145 FILLER_0_29_154
*1146 FILLER_0_29_185
*1147 FILLER_0_29_197
*1148 FILLER_0_29_205
*1149 FILLER_0_29_221
*1150 FILLER_0_29_225
*1151 FILLER_0_29_235
*1152 FILLER_0_29_269
*1153 FILLER_0_29_27
*1154 FILLER_0_29_277
*1155 FILLER_0_29_281
*1156 FILLER_0_29_290
*1157 FILLER_0_29_3
*1158 FILLER_0_29_302
*1159 FILLER_0_29_312
*1160 FILLER_0_29_333
*1161 FILLER_0_29_337
*1162 FILLER_0_29_349
*1163 FILLER_0_29_39
*1164 FILLER_0_29_51
*1165 FILLER_0_29_55
*1166 FILLER_0_29_57
*1167 FILLER_0_29_69
*1168 FILLER_0_29_75
*1169 FILLER_0_29_82
*1170 FILLER_0_29_86
*1171 FILLER_0_2_109
*1172 FILLER_0_2_121
*1173 FILLER_0_2_133
*1174 FILLER_0_2_139
*1175 FILLER_0_2_141
*1176 FILLER_0_2_15
*1177 FILLER_0_2_153
*1178 FILLER_0_2_165
*1179 FILLER_0_2_177
*1180 FILLER_0_2_189
*1181 FILLER_0_2_195
*1182 FILLER_0_2_197
*1183 FILLER_0_2_209
*1184 FILLER_0_2_221
*1185 FILLER_0_2_233
*1186 FILLER_0_2_245
*1187 FILLER_0_2_251
*1188 FILLER_0_2_253
*1189 FILLER_0_2_265
*1190 FILLER_0_2_27
*1191 FILLER_0_2_277
*1192 FILLER_0_2_289
*1193 FILLER_0_2_29
*1194 FILLER_0_2_3
*1195 FILLER_0_2_301
*1196 FILLER_0_2_307
*1197 FILLER_0_2_309
*1198 FILLER_0_2_321
*1199 FILLER_0_2_333
*1200 FILLER_0_2_345
*1201 FILLER_0_2_41
*1202 FILLER_0_2_53
*1203 FILLER_0_2_65
*1204 FILLER_0_2_77
*1205 FILLER_0_2_83
*1206 FILLER_0_2_85
*1207 FILLER_0_2_97
*1208 FILLER_0_30_109
*1209 FILLER_0_30_121
*1210 FILLER_0_30_146
*1211 FILLER_0_30_15
*1212 FILLER_0_30_153
*1213 FILLER_0_30_177
*1214 FILLER_0_30_189
*1215 FILLER_0_30_195
*1216 FILLER_0_30_197
*1217 FILLER_0_30_214
*1218 FILLER_0_30_222
*1219 FILLER_0_30_233
*1220 FILLER_0_30_245
*1221 FILLER_0_30_262
*1222 FILLER_0_30_27
*1223 FILLER_0_30_273
*1224 FILLER_0_30_285
*1225 FILLER_0_30_29
*1226 FILLER_0_30_291
*1227 FILLER_0_30_3
*1228 FILLER_0_30_303
*1229 FILLER_0_30_307
*1230 FILLER_0_30_317
*1231 FILLER_0_30_326
*1232 FILLER_0_30_338
*1233 FILLER_0_30_350
*1234 FILLER_0_30_41
*1235 FILLER_0_30_53
*1236 FILLER_0_30_65
*1237 FILLER_0_30_73
*1238 FILLER_0_30_93
*1239 FILLER_0_31_104
*1240 FILLER_0_31_119
*1241 FILLER_0_31_128
*1242 FILLER_0_31_140
*1243 FILLER_0_31_15
*1244 FILLER_0_31_152
*1245 FILLER_0_31_178
*1246 FILLER_0_31_190
*1247 FILLER_0_31_202
*1248 FILLER_0_31_225
*1249 FILLER_0_31_241
*1250 FILLER_0_31_247
*1251 FILLER_0_31_258
*1252 FILLER_0_31_27
*1253 FILLER_0_31_270
*1254 FILLER_0_31_278
*1255 FILLER_0_31_281
*1256 FILLER_0_31_291
*1257 FILLER_0_31_3
*1258 FILLER_0_31_314
*1259 FILLER_0_31_326
*1260 FILLER_0_31_341
*1261 FILLER_0_31_349
*1262 FILLER_0_31_39
*1263 FILLER_0_31_51
*1264 FILLER_0_31_55
*1265 FILLER_0_31_57
*1266 FILLER_0_31_69
*1267 FILLER_0_31_97
*1268 FILLER_0_32_110
*1269 FILLER_0_32_116
*1270 FILLER_0_32_139
*1271 FILLER_0_32_148
*1272 FILLER_0_32_15
*1273 FILLER_0_32_161
*1274 FILLER_0_32_173
*1275 FILLER_0_32_177
*1276 FILLER_0_32_194
*1277 FILLER_0_32_197
*1278 FILLER_0_32_205
*1279 FILLER_0_32_211
*1280 FILLER_0_32_240
*1281 FILLER_0_32_250
*1282 FILLER_0_32_266
*1283 FILLER_0_32_27
*1284 FILLER_0_32_270
*1285 FILLER_0_32_280
*1286 FILLER_0_32_29
*1287 FILLER_0_32_3
*1288 FILLER_0_32_306
*1289 FILLER_0_32_312
*1290 FILLER_0_32_324
*1291 FILLER_0_32_341
*1292 FILLER_0_32_349
*1293 FILLER_0_32_41
*1294 FILLER_0_32_53
*1295 FILLER_0_32_65
*1296 FILLER_0_32_85
*1297 FILLER_0_33_105
*1298 FILLER_0_33_111
*1299 FILLER_0_33_113
*1300 FILLER_0_33_125
*1301 FILLER_0_33_138
*1302 FILLER_0_33_15
*1303 FILLER_0_33_158
*1304 FILLER_0_33_179
*1305 FILLER_0_33_191
*1306 FILLER_0_33_203
*1307 FILLER_0_33_211
*1308 FILLER_0_33_217
*1309 FILLER_0_33_223
*1310 FILLER_0_33_225
*1311 FILLER_0_33_231
*1312 FILLER_0_33_27
*1313 FILLER_0_33_3
*1314 FILLER_0_33_300
*1315 FILLER_0_33_312
*1316 FILLER_0_33_318
*1317 FILLER_0_33_340
*1318 FILLER_0_33_348
*1319 FILLER_0_33_39
*1320 FILLER_0_33_51
*1321 FILLER_0_33_55
*1322 FILLER_0_33_57
*1323 FILLER_0_33_69
*1324 FILLER_0_33_93
*1325 FILLER_0_34_109
*1326 FILLER_0_34_121
*1327 FILLER_0_34_141
*1328 FILLER_0_34_15
*1329 FILLER_0_34_163
*1330 FILLER_0_34_172
*1331 FILLER_0_34_176
*1332 FILLER_0_34_187
*1333 FILLER_0_34_200
*1334 FILLER_0_34_212
*1335 FILLER_0_34_224
*1336 FILLER_0_34_236
*1337 FILLER_0_34_248
*1338 FILLER_0_34_253
*1339 FILLER_0_34_259
*1340 FILLER_0_34_263
*1341 FILLER_0_34_27
*1342 FILLER_0_34_275
*1343 FILLER_0_34_281
*1344 FILLER_0_34_29
*1345 FILLER_0_34_292
*1346 FILLER_0_34_3
*1347 FILLER_0_34_304
*1348 FILLER_0_34_309
*1349 FILLER_0_34_342
*1350 FILLER_0_34_350
*1351 FILLER_0_34_41
*1352 FILLER_0_34_53
*1353 FILLER_0_34_65
*1354 FILLER_0_34_77
*1355 FILLER_0_34_83
*1356 FILLER_0_34_85
*1357 FILLER_0_34_97
*1358 FILLER_0_35_105
*1359 FILLER_0_35_111
*1360 FILLER_0_35_113
*1361 FILLER_0_35_125
*1362 FILLER_0_35_129
*1363 FILLER_0_35_142
*1364 FILLER_0_35_148
*1365 FILLER_0_35_15
*1366 FILLER_0_35_152
*1367 FILLER_0_35_164
*1368 FILLER_0_35_176
*1369 FILLER_0_35_180
*1370 FILLER_0_35_205
*1371 FILLER_0_35_225
*1372 FILLER_0_35_237
*1373 FILLER_0_35_249
*1374 FILLER_0_35_255
*1375 FILLER_0_35_27
*1376 FILLER_0_35_275
*1377 FILLER_0_35_279
*1378 FILLER_0_35_290
*1379 FILLER_0_35_294
*1380 FILLER_0_35_3
*1381 FILLER_0_35_301
*1382 FILLER_0_35_313
*1383 FILLER_0_35_319
*1384 FILLER_0_35_349
*1385 FILLER_0_35_39
*1386 FILLER_0_35_51
*1387 FILLER_0_35_55
*1388 FILLER_0_35_57
*1389 FILLER_0_35_69
*1390 FILLER_0_35_81
*1391 FILLER_0_35_93
*1392 FILLER_0_36_109
*1393 FILLER_0_36_121
*1394 FILLER_0_36_138
*1395 FILLER_0_36_147
*1396 FILLER_0_36_15
*1397 FILLER_0_36_156
*1398 FILLER_0_36_164
*1399 FILLER_0_36_173
*1400 FILLER_0_36_181
*1401 FILLER_0_36_193
*1402 FILLER_0_36_245
*1403 FILLER_0_36_251
*1404 FILLER_0_36_27
*1405 FILLER_0_36_278
*1406 FILLER_0_36_29
*1407 FILLER_0_36_295
*1408 FILLER_0_36_3
*1409 FILLER_0_36_303
*1410 FILLER_0_36_350
*1411 FILLER_0_36_41
*1412 FILLER_0_36_53
*1413 FILLER_0_36_65
*1414 FILLER_0_36_77
*1415 FILLER_0_36_83
*1416 FILLER_0_36_85
*1417 FILLER_0_36_97
*1418 FILLER_0_37_105
*1419 FILLER_0_37_111
*1420 FILLER_0_37_113
*1421 FILLER_0_37_117
*1422 FILLER_0_37_15
*1423 FILLER_0_37_166
*1424 FILLER_0_37_169
*1425 FILLER_0_37_193
*1426 FILLER_0_37_201
*1427 FILLER_0_37_210
*1428 FILLER_0_37_222
*1429 FILLER_0_37_242
*1430 FILLER_0_37_27
*1431 FILLER_0_37_273
*1432 FILLER_0_37_279
*1433 FILLER_0_37_284
*1434 FILLER_0_37_3
*1435 FILLER_0_37_319
*1436 FILLER_0_37_349
*1437 FILLER_0_37_39
*1438 FILLER_0_37_51
*1439 FILLER_0_37_55
*1440 FILLER_0_37_57
*1441 FILLER_0_37_69
*1442 FILLER_0_37_81
*1443 FILLER_0_37_93
*1444 FILLER_0_38_102
*1445 FILLER_0_38_106
*1446 FILLER_0_38_110
*1447 FILLER_0_38_113
*1448 FILLER_0_38_118
*1449 FILLER_0_38_122
*1450 FILLER_0_38_126
*1451 FILLER_0_38_130
*1452 FILLER_0_38_134
*1453 FILLER_0_38_14
*1454 FILLER_0_38_141
*1455 FILLER_0_38_153
*1456 FILLER_0_38_165
*1457 FILLER_0_38_169
*1458 FILLER_0_38_18
*1459 FILLER_0_38_181
*1460 FILLER_0_38_193
*1461 FILLER_0_38_197
*1462 FILLER_0_38_206
*1463 FILLER_0_38_210
*1464 FILLER_0_38_214
*1465 FILLER_0_38_218
*1466 FILLER_0_38_22
*1467 FILLER_0_38_222
*1468 FILLER_0_38_241
*1469 FILLER_0_38_246
*1470 FILLER_0_38_253
*1471 FILLER_0_38_272
*1472 FILLER_0_38_281
*1473 FILLER_0_38_289
*1474 FILLER_0_38_3
*1475 FILLER_0_38_32
*1476 FILLER_0_38_329
*1477 FILLER_0_38_335
*1478 FILLER_0_38_343
*1479 FILLER_0_38_38
*1480 FILLER_0_38_42
*1481 FILLER_0_38_46
*1482 FILLER_0_38_50
*1483 FILLER_0_38_54
*1484 FILLER_0_38_57
*1485 FILLER_0_38_62
*1486 FILLER_0_38_66
*1487 FILLER_0_38_70
*1488 FILLER_0_38_74
*1489 FILLER_0_38_78
*1490 FILLER_0_38_88
*1491 FILLER_0_38_94
*1492 FILLER_0_38_98
*1493 FILLER_0_3_105
*1494 FILLER_0_3_111
*1495 FILLER_0_3_113
*1496 FILLER_0_3_125
*1497 FILLER_0_3_137
*1498 FILLER_0_3_149
*1499 FILLER_0_3_15
*1500 FILLER_0_3_161
*1501 FILLER_0_3_167
*1502 FILLER_0_3_169
*1503 FILLER_0_3_181
*1504 FILLER_0_3_193
*1505 FILLER_0_3_205
*1506 FILLER_0_3_217
*1507 FILLER_0_3_223
*1508 FILLER_0_3_225
*1509 FILLER_0_3_237
*1510 FILLER_0_3_249
*1511 FILLER_0_3_261
*1512 FILLER_0_3_27
*1513 FILLER_0_3_273
*1514 FILLER_0_3_279
*1515 FILLER_0_3_281
*1516 FILLER_0_3_293
*1517 FILLER_0_3_3
*1518 FILLER_0_3_305
*1519 FILLER_0_3_317
*1520 FILLER_0_3_329
*1521 FILLER_0_3_335
*1522 FILLER_0_3_337
*1523 FILLER_0_3_349
*1524 FILLER_0_3_39
*1525 FILLER_0_3_51
*1526 FILLER_0_3_55
*1527 FILLER_0_3_57
*1528 FILLER_0_3_69
*1529 FILLER_0_3_81
*1530 FILLER_0_3_93
*1531 FILLER_0_4_109
*1532 FILLER_0_4_121
*1533 FILLER_0_4_133
*1534 FILLER_0_4_139
*1535 FILLER_0_4_141
*1536 FILLER_0_4_15
*1537 FILLER_0_4_153
*1538 FILLER_0_4_165
*1539 FILLER_0_4_177
*1540 FILLER_0_4_189
*1541 FILLER_0_4_195
*1542 FILLER_0_4_197
*1543 FILLER_0_4_209
*1544 FILLER_0_4_221
*1545 FILLER_0_4_233
*1546 FILLER_0_4_245
*1547 FILLER_0_4_251
*1548 FILLER_0_4_253
*1549 FILLER_0_4_265
*1550 FILLER_0_4_27
*1551 FILLER_0_4_277
*1552 FILLER_0_4_289
*1553 FILLER_0_4_29
*1554 FILLER_0_4_3
*1555 FILLER_0_4_301
*1556 FILLER_0_4_307
*1557 FILLER_0_4_309
*1558 FILLER_0_4_321
*1559 FILLER_0_4_333
*1560 FILLER_0_4_345
*1561 FILLER_0_4_41
*1562 FILLER_0_4_53
*1563 FILLER_0_4_65
*1564 FILLER_0_4_77
*1565 FILLER_0_4_83