*SPEF "ieee 1481-1999"
*DESIGN "tt_um_fm_transmitter"
*DATE "11:11:11 Fri 11 11, 1111"
*VENDOR "OpenRCX"
*PROGRAM "Parallel Extraction"
*VERSION "1.0"
*DESIGN_FLOW "NAME_SCOPE LOCAL" "PIN_CAP NONE"
*DIVIDER /
*DELIMITER :
*BUS_DELIMITER []
*T_UNIT 1 NS
*C_UNIT 1 PF
*R_UNIT 1 OHM
*L_UNIT 1 HENRY

*NAME_MAP
*3 clk
*4 ena
*5 rst_n
*6 ui_in[0]
*7 ui_in[1]
*8 ui_in[2]
*9 ui_in[3]
*10 ui_in[4]
*11 ui_in[5]
*12 ui_in[6]
*13 ui_in[7]
*14 uio_in[0]
*15 uio_in[1]
*16 uio_in[2]
*17 uio_in[3]
*18 uio_in[4]
*19 uio_in[5]
*20 uio_in[6]
*21 uio_in[7]
*22 net24
*23 net25
*24 net26
*25 net27
*26 net28
*27 net29
*28 net30
*29 uio_oe[7]
*30 net31
*31 net32
*32 net33
*33 net34
*34 net35
*35 net36
*36 net37
*37 uio_out[7]
*38 uo_out[0]
*39 uo_out[1]
*40 uo_out[2]
*41 uo_out[3]
*42 net38
*43 net39
*44 net40
*45 net41
*46 _0000_
*47 _0001_
*48 _0002_
*49 _0003_
*50 _0004_
*51 _0005_
*52 _0006_
*53 _0007_
*54 _0008_
*55 _0009_
*56 _0010_
*57 _0011_
*58 _0012_
*59 _0013_
*60 _0014_
*61 _0015_
*62 _0016_
*63 _0017_
*64 _0018_
*65 _0019_
*66 _0020_
*67 _0021_
*68 _0022_
*69 _0023_
*70 _0024_
*71 _0025_
*72 _0026_
*73 _0027_
*74 _0028_
*75 _0029_
*76 _0030_
*77 _0031_
*78 _0032_
*79 _0033_
*80 _0034_
*81 _0035_
*82 _0036_
*83 _0037_
*84 _0038_
*85 _0039_
*86 _0040_
*87 _0041_
*88 _0042_
*89 _0043_
*90 _0044_
*91 _0045_
*92 _0046_
*93 _0047_
*94 _0048_
*95 _0049_
*96 _0050_
*97 _0051_
*98 _0052_
*99 _0053_
*100 _0054_
*101 _0055_
*102 _0056_
*103 _0057_
*104 _0058_
*105 _0059_
*106 _0060_
*107 _0061_
*108 _0062_
*109 _0063_
*110 _0064_
*111 _0065_
*112 _0066_
*113 _0067_
*114 _0068_
*115 _0069_
*116 _0070_
*117 _0071_
*118 _0072_
*119 _0073_
*120 _0074_
*121 _0075_
*122 _0076_
*123 _0077_
*124 _0078_
*125 _0079_
*126 _0080_
*127 _0081_
*128 _0082_
*129 _0083_
*130 _0084_
*131 _0085_
*132 _0086_
*133 _0087_
*134 _0088_
*135 _0089_
*136 _0090_
*137 _0091_
*138 _0092_
*139 _0093_
*140 _0094_
*141 _0095_
*142 _0096_
*143 _0097_
*144 _0098_
*145 _0099_
*146 _0100_
*147 _0101_
*148 _0102_
*149 _0103_
*150 _0104_
*151 _0105_
*152 _0106_
*153 _0107_
*154 _0108_
*155 _0109_
*156 _0110_
*157 _0111_
*158 _0112_
*159 _0113_
*160 _0114_
*161 _0115_
*162 _0116_
*163 _0117_
*164 _0118_
*165 _0119_
*166 _0120_
*167 _0121_
*168 _0122_
*169 _0123_
*170 _0124_
*171 _0125_
*172 _0126_
*173 _0127_
*174 _0128_
*175 _0129_
*176 _0130_
*177 _0131_
*178 _0132_
*179 _0133_
*180 _0134_
*181 _0135_
*182 _0136_
*183 _0137_
*184 _0138_
*185 _0139_
*186 _0140_
*187 _0141_
*188 _0142_
*189 _0143_
*190 _0144_
*191 _0145_
*192 _0146_
*193 _0147_
*194 _0148_
*195 _0149_
*196 _0150_
*197 _0151_
*198 _0152_
*199 _0153_
*200 _0154_
*201 _0155_
*202 _0156_
*203 _0157_
*204 _0158_
*205 _0159_
*206 _0160_
*207 _0161_
*208 _0162_
*209 _0163_
*210 _0164_
*211 _0165_
*212 _0166_
*213 _0167_
*214 _0168_
*215 _0169_
*216 _0170_
*217 _0171_
*218 _0172_
*219 _0173_
*220 _0174_
*221 _0175_
*222 _0176_
*223 _0177_
*224 _0178_
*225 _0179_
*226 _0180_
*227 _0181_
*228 _0182_
*229 _0183_
*230 _0184_
*231 _0185_
*232 _0186_
*233 _0187_
*234 _0188_
*235 _0189_
*236 _0190_
*237 _0191_
*238 _0192_
*239 _0193_
*240 _0194_
*241 _0195_
*242 _0196_
*243 _0197_
*244 _0198_
*245 _0199_
*246 _0200_
*247 _0201_
*248 _0202_
*249 _0203_
*250 _0204_
*251 _0205_
*252 _0206_
*253 _0207_
*254 _0208_
*255 _0209_
*256 _0210_
*257 _0211_
*258 _0212_
*259 _0213_
*260 _0214_
*261 _0215_
*262 _0216_
*263 _0217_
*264 _0218_
*265 _0219_
*266 _0220_
*267 _0221_
*268 _0222_
*269 _0223_
*270 _0224_
*271 _0225_
*272 _0226_
*273 _0227_
*274 _0228_
*275 _0229_
*276 _0230_
*277 _0231_
*278 _0232_
*279 _0233_
*280 _0234_
*281 _0235_
*282 _0236_
*283 _0237_
*284 _0238_
*285 _0239_
*286 _0240_
*287 _0241_
*288 _0242_
*289 _0243_
*290 _0244_
*291 _0245_
*292 _0246_
*293 _0247_
*294 _0248_
*295 _0249_
*296 _0250_
*297 _0251_
*298 _0252_
*299 _0253_
*300 _0254_
*301 _0255_
*302 _0256_
*303 _0257_
*304 _0258_
*305 _0259_
*306 _0260_
*307 _0261_
*308 _0262_
*309 _0263_
*310 _0264_
*311 _0265_
*312 _0266_
*313 _0267_
*314 _0268_
*315 _0269_
*316 _0270_
*317 _0271_
*318 _0272_
*319 _0273_
*320 _0274_
*321 _0275_
*322 _0276_
*323 _0277_
*324 _0278_
*325 _0279_
*326 _0280_
*327 _0281_
*328 _0282_
*329 _0283_
*330 _0284_
*331 _0285_
*332 _0286_
*333 _0287_
*334 _0288_
*335 _0289_
*336 _0290_
*337 _0291_
*338 _0292_
*339 _0293_
*340 _0294_
*341 _0295_
*342 _0296_
*343 _0297_
*344 _0298_
*345 _0299_
*346 _0300_
*347 _0301_
*348 _0302_
*349 _0303_
*350 _0304_
*351 _0305_
*352 _0306_
*353 _0307_
*354 _0308_
*355 _0309_
*356 _0310_
*357 _0311_
*358 _0312_
*359 _0313_
*360 _0314_
*361 _0315_
*362 _0316_
*363 _0317_
*364 _0318_
*365 _0319_
*366 _0320_
*367 _0321_
*368 _0322_
*369 _0323_
*370 _0324_
*371 _0325_
*372 _0326_
*373 _0327_
*374 _0328_
*375 _0329_
*376 _0330_
*377 _0331_
*378 _0332_
*379 _0333_
*380 _0334_
*381 _0335_
*382 _0336_
*383 _0337_
*384 _0338_
*385 _0339_
*386 _0340_
*387 _0341_
*388 _0342_
*389 _0343_
*390 _0344_
*391 _0345_
*392 _0346_
*393 _0347_
*394 _0348_
*395 _0349_
*396 _0350_
*397 _0351_
*398 _0352_
*399 _0353_
*400 _0354_
*401 _0355_
*402 _0356_
*403 _0357_
*404 _0358_
*405 _0359_
*406 _0360_
*407 _0361_
*408 _0362_
*409 _0363_
*410 _0364_
*411 _0365_
*412 _0366_
*413 _0367_
*414 _0368_
*415 _0369_
*416 _0370_
*417 _0371_
*418 _0372_
*419 _0373_
*420 _0374_
*421 _0375_
*422 _0376_
*423 _0377_
*424 _0378_
*425 _0379_
*426 _0380_
*427 _0381_
*428 _0382_
*429 _0383_
*430 _0384_
*431 _0385_
*432 _0386_
*433 _0387_
*434 _0388_
*435 _0389_
*436 _0390_
*437 _0391_
*438 _0392_
*439 _0393_
*440 _0394_
*441 _0395_
*442 _0396_
*443 _0397_
*444 _0398_
*445 _0399_
*446 _0400_
*447 _0401_
*448 _0402_
*449 _0403_
*450 _0404_
*451 _0405_
*452 _0406_
*453 _0407_
*454 _0408_
*455 _0409_
*456 _0410_
*457 _0411_
*458 _0412_
*459 _0413_
*460 _0414_
*461 _0415_
*462 _0416_
*463 _0417_
*464 _0418_
*465 _0419_
*466 _0420_
*467 _0421_
*468 _0422_
*469 _0423_
*470 _0424_
*471 _0425_
*472 _0426_
*473 _0427_
*474 _0428_
*475 _0429_
*476 _0430_
*477 _0431_
*478 _0432_
*479 _0433_
*480 _0434_
*481 _0435_
*482 _0436_
*483 _0437_
*484 _0438_
*485 _0439_
*486 _0440_
*487 _0441_
*488 _0442_
*489 _0443_
*490 _0444_
*491 _0445_
*492 _0446_
*493 _0447_
*494 _0448_
*495 _0449_
*496 _0450_
*497 _0451_
*498 _0452_
*499 _0453_
*500 _0454_
*501 _0455_
*502 _0456_
*503 _0457_
*504 _0458_
*505 _0459_
*506 _0460_
*507 _0461_
*508 _0462_
*509 _0463_
*510 _0464_
*511 _0465_
*512 _0466_
*513 _0467_
*514 _0468_
*515 _0469_
*516 _0470_
*517 _0471_
*518 _0472_
*519 _0473_
*520 _0474_
*521 _0475_
*522 _0476_
*523 _0477_
*524 _0478_
*525 _0479_
*526 _0480_
*527 _0481_
*528 _0482_
*529 _0483_
*530 _0484_
*531 _0485_
*532 _0486_
*533 _0487_
*534 _0488_
*535 _0489_
*536 _0490_
*537 _0491_
*538 _0492_
*539 _0493_
*540 _0494_
*541 _0495_
*542 _0496_
*543 _0497_
*544 _0498_
*545 _0499_
*546 _0500_
*547 _0501_
*548 _0502_
*549 _0503_
*550 _0504_
*551 _0505_
*552 _0506_
*553 _0507_
*554 _0508_
*555 _0509_
*556 _0510_
*557 _0511_
*558 _0512_
*559 _0513_
*560 _0514_
*561 _0515_
*562 _0516_
*563 _0517_
*564 _0518_
*565 _0519_
*566 _0520_
*567 _0521_
*568 _0522_
*569 _0523_
*570 _0524_
*571 _0525_
*572 _0526_
*573 _0527_
*574 _0528_
*575 _0529_
*576 _0530_
*577 _0531_
*578 _0532_
*579 _0533_
*580 _0534_
*581 _0535_
*582 _0536_
*583 _0537_
*584 _0538_
*585 _0539_
*586 _0540_
*587 _0541_
*588 _0542_
*589 _0543_
*590 _0544_
*591 _0545_
*592 _0546_
*593 _0547_
*594 _0548_
*595 _0549_
*596 _0550_
*597 _0551_
*598 _0552_
*599 _0553_
*600 _0554_
*601 _0555_
*602 _0556_
*603 _0557_
*604 _0558_
*605 _0559_
*606 _0560_
*607 _0561_
*608 _0562_
*609 _0563_
*610 _0564_
*611 _0565_
*612 _0566_
*613 _0567_
*614 _0568_
*615 _0569_
*616 _0570_
*617 _0571_
*618 _0572_
*619 _0573_
*620 _0574_
*621 _0575_
*622 _0576_
*623 _0577_
*624 _0578_
*625 _0579_
*626 _0580_
*627 _0581_
*628 _0582_
*629 _0583_
*630 cdc_audio_data\.dst_data\[0\]
*631 cdc_audio_data\.dst_data\[1\]
*632 cdc_audio_data\.dst_data\[2\]
*633 cdc_audio_data\.dst_data\[3\]
*634 cdc_audio_data\.dst_data\[4\]
*635 cdc_audio_data\.dst_data\[5\]
*636 cdc_audio_data\.dst_data\[6\]
*637 cdc_audio_data\.dst_data\[7\]
*638 cdc_audio_data\.dv_ff1
*639 cdc_audio_data\.dv_ff2
*640 cdc_audio_data\.src_data\[0\]
*641 cdc_audio_data\.src_data\[1\]
*642 cdc_audio_data\.src_data\[2\]
*643 cdc_audio_data\.src_data\[3\]
*644 cdc_audio_data\.src_data\[4\]
*645 cdc_audio_data\.src_data\[5\]
*646 cdc_audio_data\.src_data\[6\]
*647 cdc_audio_data\.src_data\[7\]
*648 cdc_audio_data\.src_dv
*649 clknet_0_clk
*650 clknet_2_0__leaf_clk
*651 clknet_2_1__leaf_clk
*652 clknet_2_2__leaf_clk
*653 clknet_2_3__leaf_clk
*654 fm_modulator_inst\.fm_fun\[0\]
*655 fm_modulator_inst\.fm_out\[0\]
*656 fm_modulator_inst\.fm_out\[1\]
*657 fm_modulator_inst\.fm_out\[2\]
*658 fm_modulator_inst\.fm_out\[3\]
*659 fm_modulator_inst\.phase_acc\[0\]
*660 fm_modulator_inst\.phase_acc\[10\]
*661 fm_modulator_inst\.phase_acc\[11\]
*662 fm_modulator_inst\.phase_acc\[12\]
*663 fm_modulator_inst\.phase_acc\[13\]
*664 fm_modulator_inst\.phase_acc\[14\]
*665 fm_modulator_inst\.phase_acc\[15\]
*666 fm_modulator_inst\.phase_acc\[16\]
*667 fm_modulator_inst\.phase_acc\[17\]
*668 fm_modulator_inst\.phase_acc\[1\]
*669 fm_modulator_inst\.phase_acc\[2\]
*670 fm_modulator_inst\.phase_acc\[3\]
*671 fm_modulator_inst\.phase_acc\[4\]
*672 fm_modulator_inst\.phase_acc\[5\]
*673 fm_modulator_inst\.phase_acc\[6\]
*674 fm_modulator_inst\.phase_acc\[7\]
*675 fm_modulator_inst\.phase_acc\[8\]
*676 fm_modulator_inst\.phase_acc\[9\]
*677 i2s_rx_inst\.dout\[0\]
*678 i2s_rx_inst\.dout\[1\]
*679 i2s_rx_inst\.dout\[2\]
*680 i2s_rx_inst\.dout\[3\]
*681 i2s_rx_inst\.dout\[4\]
*682 i2s_rx_inst\.dout\[5\]
*683 i2s_rx_inst\.dout\[6\]
*684 i2s_rx_inst\.dout\[7\]
*685 i2s_rx_inst\.i2s_ws_del
*686 net1
*687 net10
*688 net11
*689 net12
*690 net13
*691 net14
*692 net15
*693 net16
*694 net17
*695 net18
*696 net19
*697 net2
*698 net20
*699 net21
*700 net22
*701 net23
*702 net3
*703 net4
*704 net42
*705 net43
*706 net5
*707 net6
*708 net7
*709 net8
*710 net9
*711 spi_config_inst\.shift_reg\[0\]
*712 spi_config_inst\.shift_reg\[10\]
*713 spi_config_inst\.shift_reg\[11\]
*714 spi_config_inst\.shift_reg\[12\]
*715 spi_config_inst\.shift_reg\[13\]
*716 spi_config_inst\.shift_reg\[14\]
*717 spi_config_inst\.shift_reg\[15\]
*718 spi_config_inst\.shift_reg\[16\]
*719 spi_config_inst\.shift_reg\[17\]
*720 spi_config_inst\.shift_reg\[18\]
*721 spi_config_inst\.shift_reg\[19\]
*722 spi_config_inst\.shift_reg\[1\]
*723 spi_config_inst\.shift_reg\[20\]
*724 spi_config_inst\.shift_reg\[21\]
*725 spi_config_inst\.shift_reg\[22\]
*726 spi_config_inst\.shift_reg\[23\]
*727 spi_config_inst\.shift_reg\[24\]
*728 spi_config_inst\.shift_reg\[25\]
*729 spi_config_inst\.shift_reg\[26\]
*730 spi_config_inst\.shift_reg\[27\]
*731 spi_config_inst\.shift_reg\[28\]
*732 spi_config_inst\.shift_reg\[29\]
*733 spi_config_inst\.shift_reg\[2\]
*734 spi_config_inst\.shift_reg\[30\]
*735 spi_config_inst\.shift_reg\[31\]
*736 spi_config_inst\.shift_reg\[32\]
*737 spi_config_inst\.shift_reg\[33\]
*738 spi_config_inst\.shift_reg\[34\]
*739 spi_config_inst\.shift_reg\[3\]
*740 spi_config_inst\.shift_reg\[4\]
*741 spi_config_inst\.shift_reg\[5\]
*742 spi_config_inst\.shift_reg\[6\]
*743 spi_config_inst\.shift_reg\[7\]
*744 spi_config_inst\.shift_reg\[8\]
*745 spi_config_inst\.shift_reg\[9\]
*746 spi_config_inst\.spi_miso
*747 spi_config_inst\.spi_miso_reg0
*748 FILLER_0_0_109
*749 FILLER_0_0_113
*750 FILLER_0_0_125
*751 FILLER_0_0_137
*752 FILLER_0_0_141
*753 FILLER_0_0_15
*754 FILLER_0_0_153
*755 FILLER_0_0_165
*756 FILLER_0_0_169
*757 FILLER_0_0_181
*758 FILLER_0_0_193
*759 FILLER_0_0_197
*760 FILLER_0_0_209
*761 FILLER_0_0_221
*762 FILLER_0_0_225
*763 FILLER_0_0_237
*764 FILLER_0_0_249
*765 FILLER_0_0_253
*766 FILLER_0_0_265
*767 FILLER_0_0_27
*768 FILLER_0_0_277
*769 FILLER_0_0_281
*770 FILLER_0_0_29
*771 FILLER_0_0_293
*772 FILLER_0_0_3
*773 FILLER_0_0_305
*774 FILLER_0_0_309
*775 FILLER_0_0_321
*776 FILLER_0_0_333
*777 FILLER_0_0_337
*778 FILLER_0_0_349
*779 FILLER_0_0_41
*780 FILLER_0_0_53
*781 FILLER_0_0_57
*782 FILLER_0_0_69
*783 FILLER_0_0_81
*784 FILLER_0_0_85
*785 FILLER_0_0_97
*786 FILLER_0_10_109
*787 FILLER_0_10_121
*788 FILLER_0_10_133
*789 FILLER_0_10_139
*790 FILLER_0_10_141
*791 FILLER_0_10_15
*792 FILLER_0_10_153
*793 FILLER_0_10_165
*794 FILLER_0_10_177
*795 FILLER_0_10_216
*796 FILLER_0_10_228
*797 FILLER_0_10_240
*798 FILLER_0_10_250
*799 FILLER_0_10_257
*800 FILLER_0_10_269
*801 FILLER_0_10_27
*802 FILLER_0_10_29
*803 FILLER_0_10_294
*804 FILLER_0_10_3
*805 FILLER_0_10_306
*806 FILLER_0_10_309
*807 FILLER_0_10_313
*808 FILLER_0_10_331
*809 FILLER_0_10_343
*810 FILLER_0_10_41
*811 FILLER_0_10_53
*812 FILLER_0_10_65
*813 FILLER_0_10_77
*814 FILLER_0_10_83
*815 FILLER_0_10_85
*816 FILLER_0_10_97
*817 FILLER_0_11_103
*818 FILLER_0_11_111
*819 FILLER_0_11_113
*820 FILLER_0_11_125
*821 FILLER_0_11_137
*822 FILLER_0_11_149
*823 FILLER_0_11_15
*824 FILLER_0_11_161
*825 FILLER_0_11_167
*826 FILLER_0_11_169
*827 FILLER_0_11_181
*828 FILLER_0_11_196
*829 FILLER_0_11_212
*830 FILLER_0_11_225
*831 FILLER_0_11_237
*832 FILLER_0_11_245
*833 FILLER_0_11_250
*834 FILLER_0_11_254
*835 FILLER_0_11_262
*836 FILLER_0_11_27
*837 FILLER_0_11_274
*838 FILLER_0_11_294
*839 FILLER_0_11_3
*840 FILLER_0_11_306
*841 FILLER_0_11_328
*842 FILLER_0_11_337
*843 FILLER_0_11_349
*844 FILLER_0_11_39
*845 FILLER_0_11_51
*846 FILLER_0_11_55
*847 FILLER_0_11_57
*848 FILLER_0_11_69
*849 FILLER_0_11_91
*850 FILLER_0_12_103
*851 FILLER_0_12_112
*852 FILLER_0_12_135
*853 FILLER_0_12_139
*854 FILLER_0_12_141
*855 FILLER_0_12_15
*856 FILLER_0_12_153
*857 FILLER_0_12_182
*858 FILLER_0_12_194
*859 FILLER_0_12_197
*860 FILLER_0_12_209
*861 FILLER_0_12_221
*862 FILLER_0_12_225
*863 FILLER_0_12_250
*864 FILLER_0_12_263
*865 FILLER_0_12_27
*866 FILLER_0_12_275
*867 FILLER_0_12_287
*868 FILLER_0_12_29
*869 FILLER_0_12_299
*870 FILLER_0_12_3
*871 FILLER_0_12_338
*872 FILLER_0_12_350
*873 FILLER_0_12_41
*874 FILLER_0_12_53
*875 FILLER_0_12_61
*876 FILLER_0_12_83
*877 FILLER_0_12_95
*878 FILLER_0_13_123
*879 FILLER_0_13_128
*880 FILLER_0_13_140
*881 FILLER_0_13_15
*882 FILLER_0_13_152
*883 FILLER_0_13_182
*884 FILLER_0_13_19
*885 FILLER_0_13_194
*886 FILLER_0_13_198
*887 FILLER_0_13_202
*888 FILLER_0_13_216
*889 FILLER_0_13_225
*890 FILLER_0_13_245
*891 FILLER_0_13_265
*892 FILLER_0_13_277
*893 FILLER_0_13_281
*894 FILLER_0_13_293
*895 FILLER_0_13_3
*896 FILLER_0_13_305
*897 FILLER_0_13_346
*898 FILLER_0_13_350
*899 FILLER_0_13_36
*900 FILLER_0_13_48
*901 FILLER_0_13_57
*902 FILLER_0_13_64
*903 FILLER_0_13_95
*904 FILLER_0_14_109
*905 FILLER_0_14_121
*906 FILLER_0_14_133
*907 FILLER_0_14_139
*908 FILLER_0_14_141
*909 FILLER_0_14_15
*910 FILLER_0_14_153
*911 FILLER_0_14_161
*912 FILLER_0_14_173
*913 FILLER_0_14_181
*914 FILLER_0_14_195
*915 FILLER_0_14_204
*916 FILLER_0_14_209
*917 FILLER_0_14_221
*918 FILLER_0_14_229
*919 FILLER_0_14_244
*920 FILLER_0_14_251
*921 FILLER_0_14_256
*922 FILLER_0_14_262
*923 FILLER_0_14_270
*924 FILLER_0_14_279
*925 FILLER_0_14_29
*926 FILLER_0_14_3
*927 FILLER_0_14_300
*928 FILLER_0_14_309
*929 FILLER_0_14_349
*930 FILLER_0_14_42
*931 FILLER_0_14_60
*932 FILLER_0_14_69
*933 FILLER_0_14_79
*934 FILLER_0_14_83
*935 FILLER_0_14_97
*936 FILLER_0_15_104
*937 FILLER_0_15_122
*938 FILLER_0_15_134
*939 FILLER_0_15_140
*940 FILLER_0_15_154
*941 FILLER_0_15_165
*942 FILLER_0_15_206
*943 FILLER_0_15_218
*944 FILLER_0_15_225
*945 FILLER_0_15_240
*946 FILLER_0_15_252
*947 FILLER_0_15_277
*948 FILLER_0_15_281
*949 FILLER_0_15_3
*950 FILLER_0_15_304
*951 FILLER_0_15_316
*952 FILLER_0_15_322
*953 FILLER_0_15_335
*954 FILLER_0_15_337
*955 FILLER_0_15_349
*956 FILLER_0_15_46
*957 FILLER_0_15_54
*958 FILLER_0_15_57
*959 FILLER_0_15_64
*960 FILLER_0_15_72
*961 FILLER_0_15_84
*962 FILLER_0_15_96
*963 FILLER_0_16_124
*964 FILLER_0_16_136
*965 FILLER_0_16_173
*966 FILLER_0_16_185
*967 FILLER_0_16_206
*968 FILLER_0_16_214
*969 FILLER_0_16_230
*970 FILLER_0_16_242
*971 FILLER_0_16_250
*972 FILLER_0_16_253
*973 FILLER_0_16_275
*974 FILLER_0_16_29
*975 FILLER_0_16_3
*976 FILLER_0_16_300
*977 FILLER_0_16_309
*978 FILLER_0_16_321
*979 FILLER_0_16_350
*980 FILLER_0_16_50
*981 FILLER_0_16_58
*982 FILLER_0_16_85
*983 FILLER_0_16_97
*984 FILLER_0_17_129
*985 FILLER_0_17_141
*986 FILLER_0_17_15
*987 FILLER_0_17_153
*988 FILLER_0_17_169
*989 FILLER_0_17_181
*990 FILLER_0_17_206
*991 FILLER_0_17_218
*992 FILLER_0_17_245
*993 FILLER_0_17_259
*994 FILLER_0_17_269
*995 FILLER_0_17_277
*996 FILLER_0_17_281
*997 FILLER_0_17_290
*998 FILLER_0_17_3
*999 FILLER_0_17_308
*1000 FILLER_0_17_316
*1001 FILLER_0_17_346
*1002 FILLER_0_17_35
*1003 FILLER_0_17_350
*1004 FILLER_0_17_43
*1005 FILLER_0_17_55
*1006 FILLER_0_17_82
*1007 FILLER_0_17_94
*1008 FILLER_0_18_120
*1009 FILLER_0_18_132
*1010 FILLER_0_18_141
*1011 FILLER_0_18_158
*1012 FILLER_0_18_163
*1013 FILLER_0_18_175
*1014 FILLER_0_18_190
*1015 FILLER_0_18_204
*1016 FILLER_0_18_216
*1017 FILLER_0_18_232
*1018 FILLER_0_18_244
*1019 FILLER_0_18_26
*1020 FILLER_0_18_29
*1021 FILLER_0_18_3
*1022 FILLER_0_18_307
*1023 FILLER_0_18_309
*1024 FILLER_0_18_321
*1025 FILLER_0_18_343
*1026 FILLER_0_18_38
*1027 FILLER_0_18_66
*1028 FILLER_0_18_70
*1029 FILLER_0_18_74
*1030 FILLER_0_18_82
*1031 FILLER_0_18_85
*1032 FILLER_0_18_9
*1033 FILLER_0_18_97
*1034 FILLER_0_19_101
*1035 FILLER_0_19_11
*1036 FILLER_0_19_113
*1037 FILLER_0_19_121
*1038 FILLER_0_19_133
*1039 FILLER_0_19_145
*1040 FILLER_0_19_157
*1041 FILLER_0_19_165
*1042 FILLER_0_19_169
*1043 FILLER_0_19_205
*1044 FILLER_0_19_209
*1045 FILLER_0_19_222
*1046 FILLER_0_19_225
*1047 FILLER_0_19_25
*1048 FILLER_0_19_272
*1049 FILLER_0_19_281
*1050 FILLER_0_19_289
*1051 FILLER_0_19_294
*1052 FILLER_0_19_3
*1053 FILLER_0_19_304
*1054 FILLER_0_19_316
*1055 FILLER_0_19_328
*1056 FILLER_0_19_33
*1057 FILLER_0_19_333
*1058 FILLER_0_19_337
*1059 FILLER_0_19_349
*1060 FILLER_0_19_37
*1061 FILLER_0_19_48
*1062 FILLER_0_19_57
*1063 FILLER_0_19_67
*1064 FILLER_0_19_79
*1065 FILLER_0_19_91
*1066 FILLER_0_19_97
*1067 FILLER_0_1_105
*1068 FILLER_0_1_111
*1069 FILLER_0_1_113
*1070 FILLER_0_1_125
*1071 FILLER_0_1_137
*1072 FILLER_0_1_149
*1073 FILLER_0_1_15
*1074 FILLER_0_1_161
*1075 FILLER_0_1_167
*1076 FILLER_0_1_169
*1077 FILLER_0_1_181
*1078 FILLER_0_1_193
*1079 FILLER_0_1_205
*1080 FILLER_0_1_217
*1081 FILLER_0_1_223
*1082 FILLER_0_1_225
*1083 FILLER_0_1_237
*1084 FILLER_0_1_249
*1085 FILLER_0_1_261
*1086 FILLER_0_1_27
*1087 FILLER_0_1_273
*1088 FILLER_0_1_279
*1089 FILLER_0_1_281
*1090 FILLER_0_1_293
*1091 FILLER_0_1_3
*1092 FILLER_0_1_305
*1093 FILLER_0_1_317
*1094 FILLER_0_1_329
*1095 FILLER_0_1_335
*1096 FILLER_0_1_337
*1097 FILLER_0_1_349
*1098 FILLER_0_1_39
*1099 FILLER_0_1_51
*1100 FILLER_0_1_55
*1101 FILLER_0_1_57
*1102 FILLER_0_1_69
*1103 FILLER_0_1_81
*1104 FILLER_0_1_93
*1105 FILLER_0_20_102
*1106 FILLER_0_20_128
*1107 FILLER_0_20_141
*1108 FILLER_0_20_149
*1109 FILLER_0_20_153
*1110 FILLER_0_20_165
*1111 FILLER_0_20_177
*1112 FILLER_0_20_185
*1113 FILLER_0_20_190
*1114 FILLER_0_20_206
*1115 FILLER_0_20_227
*1116 FILLER_0_20_236
*1117 FILLER_0_20_24
*1118 FILLER_0_20_242
*1119 FILLER_0_20_250
*1120 FILLER_0_20_253
*1121 FILLER_0_20_259
*1122 FILLER_0_20_271
*1123 FILLER_0_20_277
*1124 FILLER_0_20_287
*1125 FILLER_0_20_295
*1126 FILLER_0_20_3
*1127 FILLER_0_20_302
*1128 FILLER_0_20_309
*1129 FILLER_0_20_317
*1130 FILLER_0_20_343
*1131 FILLER_0_20_50
*1132 FILLER_0_20_56
*1133 FILLER_0_20_83
*1134 FILLER_0_20_94
*1135 FILLER_0_21_103
*1136 FILLER_0_21_126
*1137 FILLER_0_21_138
*1138 FILLER_0_21_15
*1139 FILLER_0_21_167
*1140 FILLER_0_21_173
*1141 FILLER_0_21_185
*1142 FILLER_0_21_219
*1143 FILLER_0_21_223
*1144 FILLER_0_21_225
*1145 FILLER_0_21_229
*1146 FILLER_0_21_237
*1147 FILLER_0_21_243
*1148 FILLER_0_21_251
*1149 FILLER_0_21_260
*1150 FILLER_0_21_266
*1151 FILLER_0_21_27
*1152 FILLER_0_21_276
*1153 FILLER_0_21_3
*1154 FILLER_0_21_310
*1155 FILLER_0_21_318
*1156 FILLER_0_21_346
*1157 FILLER_0_21_350
*1158 FILLER_0_21_40
*1159 FILLER_0_21_52
*1160 FILLER_0_21_57
*1161 FILLER_0_21_65
*1162 FILLER_0_21_69
*1163 FILLER_0_21_73
*1164 FILLER_0_21_95
*1165 FILLER_0_22_103
*1166 FILLER_0_22_107
*1167 FILLER_0_22_132
*1168 FILLER_0_22_141
*1169 FILLER_0_22_15
*1170 FILLER_0_22_175
*1171 FILLER_0_22_190
*1172 FILLER_0_22_218
*1173 FILLER_0_22_222
*1174 FILLER_0_22_242
*1175 FILLER_0_22_248
*1176 FILLER_0_22_263
*1177 FILLER_0_22_27
*1178 FILLER_0_22_275
*1179 FILLER_0_22_3
*1180 FILLER_0_22_305
*1181 FILLER_0_22_309
*1182 FILLER_0_22_321
*1183 FILLER_0_22_336
*1184 FILLER_0_22_348
*1185 FILLER_0_22_50
*1186 FILLER_0_22_62
*1187 FILLER_0_22_70
*1188 FILLER_0_22_83
*1189 FILLER_0_22_94
*1190 FILLER_0_23_106
*1191 FILLER_0_23_11
*1192 FILLER_0_23_136
*1193 FILLER_0_23_148
*1194 FILLER_0_23_156
*1195 FILLER_0_23_187
*1196 FILLER_0_23_195
*1197 FILLER_0_23_208
*1198 FILLER_0_23_220
*1199 FILLER_0_23_245
*1200 FILLER_0_23_257
*1201 FILLER_0_23_269
*1202 FILLER_0_23_27
*1203 FILLER_0_23_274
*1204 FILLER_0_23_281
*1205 FILLER_0_23_289
*1206 FILLER_0_23_3
*1207 FILLER_0_23_304
*1208 FILLER_0_23_316
*1209 FILLER_0_23_346
*1210 FILLER_0_23_350
*1211 FILLER_0_23_45
*1212 FILLER_0_23_53
*1213 FILLER_0_23_57
*1214 FILLER_0_23_69
*1215 FILLER_0_23_94
*1216 FILLER_0_24_109
*1217 FILLER_0_24_11
*1218 FILLER_0_24_113
*1219 FILLER_0_24_130
*1220 FILLER_0_24_138
*1221 FILLER_0_24_141
*1222 FILLER_0_24_153
*1223 FILLER_0_24_194
*1224 FILLER_0_24_197
*1225 FILLER_0_24_209
*1226 FILLER_0_24_221
*1227 FILLER_0_24_233
*1228 FILLER_0_24_241
*1229 FILLER_0_24_246
*1230 FILLER_0_24_267
*1231 FILLER_0_24_271
*1232 FILLER_0_24_282
*1233 FILLER_0_24_287
*1234 FILLER_0_24_3
*1235 FILLER_0_24_302
*1236 FILLER_0_24_309
*1237 FILLER_0_24_321
*1238 FILLER_0_24_342
*1239 FILLER_0_24_350
*1240 FILLER_0_24_52
*1241 FILLER_0_24_64
*1242 FILLER_0_24_76
*1243 FILLER_0_24_80
*1244 FILLER_0_24_85
*1245 FILLER_0_24_97
*1246 FILLER_0_25_100
*1247 FILLER_0_25_105
*1248 FILLER_0_25_113
*1249 FILLER_0_25_128
*1250 FILLER_0_25_140
*1251 FILLER_0_25_152
*1252 FILLER_0_25_164
*1253 FILLER_0_25_195
*1254 FILLER_0_25_205
*1255 FILLER_0_25_21
*1256 FILLER_0_25_217
*1257 FILLER_0_25_223
*1258 FILLER_0_25_237
*1259 FILLER_0_25_241
*1260 FILLER_0_25_245
*1261 FILLER_0_25_260
*1262 FILLER_0_25_272
*1263 FILLER_0_25_3
*1264 FILLER_0_25_304
*1265 FILLER_0_25_316
*1266 FILLER_0_25_324
*1267 FILLER_0_25_334
*1268 FILLER_0_25_34
*1269 FILLER_0_25_346
*1270 FILLER_0_25_350
*1271 FILLER_0_25_57
*1272 FILLER_0_25_69
*1273 FILLER_0_26_100
*1274 FILLER_0_26_112
*1275 FILLER_0_26_137
*1276 FILLER_0_26_141
*1277 FILLER_0_26_153
*1278 FILLER_0_26_165
*1279 FILLER_0_26_181
*1280 FILLER_0_26_195
*1281 FILLER_0_26_204
*1282 FILLER_0_26_233
*1283 FILLER_0_26_267
*1284 FILLER_0_26_284
*1285 FILLER_0_26_29
*1286 FILLER_0_26_292
*1287 FILLER_0_26_3
*1288 FILLER_0_26_300
*1289 FILLER_0_26_309
*1290 FILLER_0_26_315
*1291 FILLER_0_26_336
*1292 FILLER_0_26_348
*1293 FILLER_0_26_41
*1294 FILLER_0_26_51
*1295 FILLER_0_26_63
*1296 FILLER_0_27_104
*1297 FILLER_0_27_11
*1298 FILLER_0_27_113
*1299 FILLER_0_27_147
*1300 FILLER_0_27_159
*1301 FILLER_0_27_167
*1302 FILLER_0_27_169
*1303 FILLER_0_27_181
*1304 FILLER_0_27_187
*1305 FILLER_0_27_196
*1306 FILLER_0_27_204
*1307 FILLER_0_27_212
*1308 FILLER_0_27_225
*1309 FILLER_0_27_239
*1310 FILLER_0_27_246
*1311 FILLER_0_27_262
*1312 FILLER_0_27_268
*1313 FILLER_0_27_278
*1314 FILLER_0_27_28
*1315 FILLER_0_27_3
*1316 FILLER_0_27_302
*1317 FILLER_0_27_314
*1318 FILLER_0_27_34
*1319 FILLER_0_27_340
*1320 FILLER_0_27_348
*1321 FILLER_0_27_46
*1322 FILLER_0_27_50
*1323 FILLER_0_27_54
*1324 FILLER_0_27_66
*1325 FILLER_0_27_95
*1326 FILLER_0_28_105
*1327 FILLER_0_28_127
*1328 FILLER_0_28_133
*1329 FILLER_0_28_139
*1330 FILLER_0_28_141
*1331 FILLER_0_28_170
*1332 FILLER_0_28_182
*1333 FILLER_0_28_191
*1334 FILLER_0_28_195
*1335 FILLER_0_28_197
*1336 FILLER_0_28_209
*1337 FILLER_0_28_216
*1338 FILLER_0_28_228
*1339 FILLER_0_28_240
*1340 FILLER_0_28_259
*1341 FILLER_0_28_294
*1342 FILLER_0_28_3
*1343 FILLER_0_28_302
*1344 FILLER_0_28_37
*1345 FILLER_0_28_41
*1346 FILLER_0_28_45
*1347 FILLER_0_28_69
*1348 FILLER_0_28_73
*1349 FILLER_0_28_78
*1350 FILLER_0_28_82
*1351 FILLER_0_28_97
*1352 FILLER_0_29_109
*1353 FILLER_0_29_11
*1354 FILLER_0_29_113
*1355 FILLER_0_29_138
*1356 FILLER_0_29_144
*1357 FILLER_0_29_160
*1358 FILLER_0_29_167
*1359 FILLER_0_29_173
*1360 FILLER_0_29_185
*1361 FILLER_0_29_198
*1362 FILLER_0_29_210
*1363 FILLER_0_29_219
*1364 FILLER_0_29_223
*1365 FILLER_0_29_225
*1366 FILLER_0_29_237
*1367 FILLER_0_29_249
*1368 FILLER_0_29_261
*1369 FILLER_0_29_269
*1370 FILLER_0_29_274
*1371 FILLER_0_29_279
*1372 FILLER_0_29_281
*1373 FILLER_0_29_293
*1374 FILLER_0_29_3
*1375 FILLER_0_29_305
*1376 FILLER_0_29_311
*1377 FILLER_0_29_321
*1378 FILLER_0_29_340
*1379 FILLER_0_29_348
*1380 FILLER_0_29_37
*1381 FILLER_0_29_46
*1382 FILLER_0_29_54
*1383 FILLER_0_29_57
*1384 FILLER_0_29_68
*1385 FILLER_0_29_74
*1386 FILLER_0_29_84
*1387 FILLER_0_29_92
*1388 FILLER_0_29_97
*1389 FILLER_0_2_109
*1390 FILLER_0_2_121
*1391 FILLER_0_2_133
*1392 FILLER_0_2_139
*1393 FILLER_0_2_141
*1394 FILLER_0_2_15
*1395 FILLER_0_2_153
*1396 FILLER_0_2_165
*1397 FILLER_0_2_177
*1398 FILLER_0_2_189
*1399 FILLER_0_2_195
*1400 FILLER_0_2_197
*1401 FILLER_0_2_209
*1402 FILLER_0_2_221
*1403 FILLER_0_2_233
*1404 FILLER_0_2_245
*1405 FILLER_0_2_251
*1406 FILLER_0_2_253
*1407 FILLER_0_2_265
*1408 FILLER_0_2_27
*1409 FILLER_0_2_277
*1410 FILLER_0_2_289
*1411 FILLER_0_2_29
*1412 FILLER_0_2_3
*1413 FILLER_0_2_301
*1414 FILLER_0_2_307
*1415 FILLER_0_2_309
*1416 FILLER_0_2_321
*1417 FILLER_0_2_333
*1418 FILLER_0_2_345
*1419 FILLER_0_2_41
*1420 FILLER_0_2_53
*1421 FILLER_0_2_65
*1422 FILLER_0_2_77
*1423 FILLER_0_2_83
*1424 FILLER_0_2_85
*1425 FILLER_0_2_97
*1426 FILLER_0_30_105
*1427 FILLER_0_30_111
*1428 FILLER_0_30_123
*1429 FILLER_0_30_135
*1430 FILLER_0_30_139
*1431 FILLER_0_30_141
*1432 FILLER_0_30_15
*1433 FILLER_0_30_168
*1434 FILLER_0_30_202
*1435 FILLER_0_30_210
*1436 FILLER_0_30_230
*1437 FILLER_0_30_260
*1438 FILLER_0_30_27
*1439 FILLER_0_30_272
*1440 FILLER_0_30_284
*1441 FILLER_0_30_296
*1442 FILLER_0_30_3
*1443 FILLER_0_30_44
*1444 FILLER_0_30_77
*1445 FILLER_0_30_81
*1446 FILLER_0_31_133
*1447 FILLER_0_31_141
*1448 FILLER_0_31_147
*1449 FILLER_0_31_15
*1450 FILLER_0_31_162
*1451 FILLER_0_31_169
*1452 FILLER_0_31_181
*1453 FILLER_0_31_198
*1454 FILLER_0_31_210
*1455 FILLER_0_31_23
*1456 FILLER_0_31_241
*1457 FILLER_0_31_249
*1458 FILLER_0_31_271
*1459 FILLER_0_31_279
*1460 FILLER_0_31_281
*1461 FILLER_0_31_3
*1462 FILLER_0_31_305
*1463 FILLER_0_31_316
*1464 FILLER_0_31_33
*1465 FILLER_0_31_337
*1466 FILLER_0_31_349
*1467 FILLER_0_31_48
*1468 FILLER_0_31_57
*1469 FILLER_0_31_62
*1470 FILLER_0_31_74
*1471 FILLER_0_31_86
*1472 FILLER_0_31_97
*1473 FILLER_0_32_101
*1474 FILLER_0_32_11
*1475 FILLER_0_32_110
*1476 FILLER_0_32_118
*1477 FILLER_0_32_130
*1478 FILLER_0_32_138
*1479 FILLER_0_32_162
*1480 FILLER_0_32_174
*1481 FILLER_0_32_186
*1482 FILLER_0_32_190
*1483 FILLER_0_32_197
*1484 FILLER_0_32_208
*1485 FILLER_0_32_214
*1486 FILLER_0_32_218
*1487 FILLER_0_32_222
*1488 FILLER_0_32_234
*1489 FILLER_0_32_246
*1490 FILLER_0_32_27
*1491 FILLER_0_32_273
*1492 FILLER_0_32_281
*1493 FILLER_0_32_3
*1494 FILLER_0_32_300
*1495 FILLER_0_32_309
*1496 FILLER_0_32_348
*1497 FILLER_0_32_39
*1498 FILLER_0_32_51
*1499 FILLER_0_32_59
*1500 FILLER_0_32_65
*1501 FILLER_0_32_77
*1502 FILLER_0_32_83
*1503 FILLER_0_32_85
*1504 FILLER_0_33_102
*1505 FILLER_0_33_11
*1506 FILLER_0_33_110
*1507 FILLER_0_33_129
*1508 FILLER_0_33_141
*1509 FILLER_0_33_153
*1510 FILLER_0_33_157
*1511 FILLER_0_33_161
*1512 FILLER_0_33_167
*1513 FILLER_0_33_178
*1514 FILLER_0_33_209
*1515 FILLER_0_33_215
*1516 FILLER_0_33_222
*1517 FILLER_0_33_225
*1518 FILLER_0_33_233
*1519 FILLER_0_33_276
*1520 FILLER_0_33_3
*1521 FILLER_0_33_304
*1522 FILLER_0_33_332
*1523 FILLER_0_33_337
*1524 FILLER_0_33_349
*1525 FILLER_0_33_47
*1526 FILLER_0_33_55
*1527 FILLER_0_33_57
*1528 FILLER_0_33_74
*1529 FILLER_0_33_82
*1530 FILLER_0_33_94
*1531 FILLER_0_34_103
*1532 FILLER_0_34_111
*1533 FILLER_0_34_118
*1534 FILLER_0_34_130
*1535 FILLER_0_34_138
*1536 FILLER_0_34_141
*1537 FILLER_0_34_147
*1538 FILLER_0_34_15
*1539 FILLER_0_34_177
*1540 FILLER_0_34_189
*1541 FILLER_0_34_218
*1542 FILLER_0_34_230
*1543 FILLER_0_34_236
*1544 FILLER_0_34_250
*1545 FILLER_0_34_253
*1546 FILLER_0_34_261
*1547 FILLER_0_34_285
*1548 FILLER_0_34_297
*1549 FILLER_0_34_3
*1550 FILLER_0_34_305
*1551 FILLER_0_34_309
*1552 FILLER_0_34_339
*1553 FILLER_0_34_41
*1554 FILLER_0_34_49
*1555 FILLER_0_34_58
*1556 FILLER_0_34_73
*1557 FILLER_0_34_82
*1558 FILLER_0_34_85
*1559 FILLER_0_34_89
*1560 FILLER_0_35_106
*1561 FILLER_0_35_111
*1562 FILLER_0_35_113
*1563 FILLER_0_35_127
*1564 FILLER_0_35_139
*1565 FILLER_0_35_15
*1566 FILLER_0_35_156
*1567 FILLER_0_35_164
*1568 FILLER_0_35_190
*1569 FILLER_0_35_211
*1570 FILLER_0_35_218
*1571 FILLER_0_35_225
*1572 FILLER_0_35_249
*1573 FILLER_0_35_261
*1574 FILLER_0_35_267
*1575 FILLER_0_35_277
*1576 FILLER_0_35_281
*1577 FILLER_0_35_289
*1578 FILLER_0_35_3
*1579 FILLER_0_35_315
*1580 FILLER_0_35_32
*1581 FILLER_0_35_346
*1582 FILLER_0_35_350
*1583 FILLER_0_35_44
*1584 FILLER_0_35_55
*1585 FILLER_0_35_57
*1586 FILLER_0_35_62
*1587 FILLER_0_35_68
*1588 FILLER_0_35_86
*1589 FILLER_0_35_98
*1590 FILLER_0_36_100
*1591 FILLER_0_36_129
*1592 FILLER_0_36_137
*1593 FILLER_0_36_157
*1594 FILLER_0_36_163
*1595 FILLER_0_36_195
*1596 FILLER_0_36_197
*1597 FILLER_0_36_205
*1598 FILLER_0_36_24
*1599 FILLER_0_36_262
*1600 FILLER_0_36_266
*1601 FILLER_0_36_282
*1602 FILLER_0_36_29
*1603 FILLER_0_36_3
*1604 FILLER_0_36_316
*1605 FILLER_0_36_349
*1606 FILLER_0_36_41
*1607 FILLER_0_36_53
*1608 FILLER_0_36_72
*1609 FILLER_0_36_9
*1610 FILLER_0_36_92
*1611 FILLER_0_37_104
*1612 FILLER_0_37_11
*1613 FILLER_0_37_111
*1614 FILLER_0_37_113
*1615 FILLER_0_37_119
*1616 FILLER_0_37_123
*1617 FILLER_0_37_156
*1618 FILLER_0_37_169
*1619 FILLER_0_37_216
*1620 FILLER_0_37_245
*1621 FILLER_0_37_257
*1622 FILLER_0_37_285
*1623 FILLER_0_37_3
*1624 FILLER_0_37_302
*1625 FILLER_0_37_310
*1626 FILLER_0_37_346