*SPEF "ieee 1481-1999"
*DESIGN "tt_um_quardinlyttle_top"
*DATE "11:11:11 Fri 11 11, 1111"
*VENDOR "OpenRCX"
*PROGRAM "Parallel Extraction"
*VERSION "1.0"
*DESIGN_FLOW "NAME_SCOPE LOCAL" "PIN_CAP NONE"
*DIVIDER /
*DELIMITER :
*BUS_DELIMITER []
*T_UNIT 1 NS
*C_UNIT 1 PF
*R_UNIT 1 OHM
*L_UNIT 1 HENRY

*NAME_MAP
*3 clk
*4 ena
*5 rst_n
*6 ui_in[0]
*7 ui_in[1]
*8 ui_in[2]
*9 ui_in[3]
*10 ui_in[4]
*11 ui_in[5]
*12 ui_in[6]
*13 ui_in[7]
*14 uio_in[0]
*15 uio_in[1]
*16 uio_in[2]
*17 uio_in[3]
*18 uio_in[4]
*19 uio_in[5]
*20 uio_in[6]
*21 uio_in[7]
*22 net18
*23 net19
*24 net20
*25 net21
*26 net22
*27 net23
*28 net24
*29 net25
*30 uio_out[0]
*31 uio_out[1]
*32 uio_out[2]
*33 uio_out[3]
*34 uio_out[4]
*35 uio_out[5]
*36 uio_out[6]
*37 uio_out[7]
*38 net10
*39 net11
*40 net12
*41 net13
*42 net14
*43 net15
*44 net16
*45 net17
*46 _000_
*47 _001_
*48 _002_
*49 _003_
*50 _004_
*51 _005_
*52 _006_
*53 _007_
*54 _008_
*55 _009_
*56 _010_
*57 _011_
*58 _012_
*59 _013_
*60 _014_
*61 _015_
*62 _016_
*63 _017_
*64 _018_
*65 _019_
*66 _020_
*67 _021_
*68 _022_
*69 _023_
*70 _024_
*71 _025_
*72 _026_
*73 _027_
*74 _028_
*75 _029_
*76 _030_
*77 _031_
*78 _032_
*79 _033_
*80 _034_
*81 _035_
*82 _036_
*83 _037_
*84 _038_
*85 _039_
*86 _040_
*87 _041_
*88 _042_
*89 _043_
*90 _044_
*91 _045_
*92 _046_
*93 _047_
*94 _048_
*95 _049_
*96 _050_
*97 _051_
*98 _052_
*99 _053_
*100 _054_
*101 _055_
*102 _056_
*103 _057_
*104 _058_
*105 _059_
*106 _060_
*107 _061_
*108 _062_
*109 _063_
*110 _064_
*111 _065_
*112 _066_
*113 _067_
*114 _068_
*115 _069_
*116 _070_
*117 _071_
*118 _072_
*119 _073_
*120 _074_
*121 _075_
*122 _076_
*123 _077_
*124 _078_
*125 _079_
*126 _080_
*127 _081_
*128 _082_
*129 _083_
*130 _084_
*131 _085_
*132 _086_
*133 _087_
*134 _088_
*135 _089_
*136 _090_
*137 _091_
*138 _092_
*139 _093_
*140 _094_
*141 _095_
*142 _096_
*143 _097_
*144 _098_
*145 _099_
*146 _100_
*147 _101_
*148 _102_
*149 _103_
*150 _104_
*151 _105_
*152 _106_
*153 _107_
*154 _108_
*155 _109_
*156 _110_
*157 _111_
*158 _112_
*159 _113_
*160 _114_
*161 _115_
*162 _116_
*163 _117_
*164 _118_
*165 _119_
*166 _120_
*167 _121_
*168 _122_
*169 _123_
*170 _124_
*171 _125_
*172 _126_
*173 _127_
*174 _128_
*175 _129_
*176 _130_
*177 _131_
*178 _132_
*179 _133_
*180 _134_
*181 _135_
*182 _136_
*183 _137_
*184 _138_
*185 _139_
*186 _140_
*187 _141_
*188 _142_
*189 _143_
*190 _144_
*191 _145_
*192 _146_
*193 _147_
*194 _148_
*195 _149_
*196 _150_
*197 _151_
*198 _152_
*199 _153_
*200 _154_
*201 _155_
*202 _156_
*203 _157_
*204 _158_
*205 _159_
*206 _160_
*207 _161_
*208 _162_
*209 _163_
*210 _164_
*211 _165_
*212 _166_
*213 _167_
*214 _168_
*215 _169_
*216 _170_
*217 _171_
*218 _172_
*219 _173_
*220 _174_
*221 _175_
*222 _176_
*223 _177_
*224 _178_
*225 _179_
*226 _180_
*227 _181_
*228 _182_
*229 _183_
*230 _184_
*231 _185_
*232 _186_
*233 _187_
*234 _188_
*235 _189_
*236 _190_
*237 _191_
*238 _192_
*239 _193_
*240 _194_
*241 _195_
*242 _196_
*243 _197_
*244 _198_
*245 _199_
*246 _200_
*247 _201_
*248 _202_
*249 _203_
*250 _204_
*251 _205_
*252 _206_
*253 _207_
*254 _208_
*255 _209_
*256 _210_
*257 _211_
*258 _212_
*259 _213_
*260 _214_
*261 _215_
*262 _216_
*263 _217_
*264 _218_
*265 _219_
*266 _220_
*267 _221_
*268 _222_
*269 _223_
*270 _224_
*271 _225_
*272 _226_
*273 _227_
*274 _228_
*275 _229_
*276 _230_
*277 alu\.runningSumWire\[0\]
*278 alu\.runningSumWire\[1\]
*279 alu\.runningSumWire\[2\]
*280 alu\.runningSumWire\[3\]
*281 alu\.runningSumWire\[4\]
*282 alu\.runningSumWire\[5\]
*283 alu\.runningSumWire\[6\]
*284 alu\.runningSumWire\[7\]
*285 alu\.sumboi\.counter\[0\]
*286 alu\.sumboi\.counter\[10\]
*287 alu\.sumboi\.counter\[11\]
*288 alu\.sumboi\.counter\[12\]
*289 alu\.sumboi\.counter\[13\]
*290 alu\.sumboi\.counter\[14\]
*291 alu\.sumboi\.counter\[15\]
*292 alu\.sumboi\.counter\[16\]
*293 alu\.sumboi\.counter\[17\]
*294 alu\.sumboi\.counter\[18\]
*295 alu\.sumboi\.counter\[19\]
*296 alu\.sumboi\.counter\[1\]
*297 alu\.sumboi\.counter\[20\]
*298 alu\.sumboi\.counter\[21\]
*299 alu\.sumboi\.counter\[22\]
*300 alu\.sumboi\.counter\[23\]
*301 alu\.sumboi\.counter\[24\]
*302 alu\.sumboi\.counter\[25\]
*303 alu\.sumboi\.counter\[2\]
*304 alu\.sumboi\.counter\[3\]
*305 alu\.sumboi\.counter\[4\]
*306 alu\.sumboi\.counter\[5\]
*307 alu\.sumboi\.counter\[6\]
*308 alu\.sumboi\.counter\[7\]
*309 alu\.sumboi\.counter\[8\]
*310 alu\.sumboi\.counter\[9\]
*311 clknet_0_clk
*312 clknet_2_0__leaf_clk
*313 clknet_2_1__leaf_clk
*314 clknet_2_2__leaf_clk
*315 clknet_2_3__leaf_clk
*316 net1
*317 net2
*318 net26
*319 net27
*320 net28
*321 net29
*322 net3
*323 net30
*324 net31
*325 net32
*326 net33
*327 net34
*328 net35
*329 net36
*330 net37
*331 net38
*332 net39
*333 net4
*334 net40
*335 net41
*336 net42
*337 net43
*338 net44
*339 net45
*340 net46
*341 net47
*342 net48
*343 net49
*344 net5
*345 net50
*346 net51
*347 net6
*348 net7
*349 net8
*350 net9
*351 FILLER_0_0_109
*352 FILLER_0_0_113
*353 FILLER_0_0_125
*354 FILLER_0_0_137
*355 FILLER_0_0_141
*356 FILLER_0_0_15
*357 FILLER_0_0_153
*358 FILLER_0_0_165
*359 FILLER_0_0_169
*360 FILLER_0_0_181
*361 FILLER_0_0_193
*362 FILLER_0_0_197
*363 FILLER_0_0_209
*364 FILLER_0_0_221
*365 FILLER_0_0_225
*366 FILLER_0_0_237
*367 FILLER_0_0_249
*368 FILLER_0_0_253
*369 FILLER_0_0_265
*370 FILLER_0_0_27
*371 FILLER_0_0_277
*372 FILLER_0_0_281
*373 FILLER_0_0_29
*374 FILLER_0_0_293
*375 FILLER_0_0_3
*376 FILLER_0_0_305
*377 FILLER_0_0_309
*378 FILLER_0_0_321
*379 FILLER_0_0_333
*380 FILLER_0_0_337
*381 FILLER_0_0_349
*382 FILLER_0_0_41
*383 FILLER_0_0_53
*384 FILLER_0_0_57
*385 FILLER_0_0_69
*386 FILLER_0_0_81
*387 FILLER_0_0_85
*388 FILLER_0_0_97
*389 FILLER_0_10_109
*390 FILLER_0_10_121
*391 FILLER_0_10_133
*392 FILLER_0_10_139
*393 FILLER_0_10_141
*394 FILLER_0_10_15
*395 FILLER_0_10_153
*396 FILLER_0_10_165
*397 FILLER_0_10_177
*398 FILLER_0_10_189
*399 FILLER_0_10_195
*400 FILLER_0_10_197
*401 FILLER_0_10_209
*402 FILLER_0_10_221
*403 FILLER_0_10_233
*404 FILLER_0_10_245
*405 FILLER_0_10_251
*406 FILLER_0_10_253
*407 FILLER_0_10_265
*408 FILLER_0_10_27
*409 FILLER_0_10_277
*410 FILLER_0_10_289
*411 FILLER_0_10_29
*412 FILLER_0_10_3
*413 FILLER_0_10_301
*414 FILLER_0_10_307
*415 FILLER_0_10_309
*416 FILLER_0_10_321
*417 FILLER_0_10_333
*418 FILLER_0_10_345
*419 FILLER_0_10_41
*420 FILLER_0_10_53
*421 FILLER_0_10_65
*422 FILLER_0_10_77
*423 FILLER_0_10_83
*424 FILLER_0_10_85
*425 FILLER_0_10_97
*426 FILLER_0_11_105
*427 FILLER_0_11_111
*428 FILLER_0_11_113
*429 FILLER_0_11_125
*430 FILLER_0_11_137
*431 FILLER_0_11_149
*432 FILLER_0_11_15
*433 FILLER_0_11_161
*434 FILLER_0_11_167
*435 FILLER_0_11_169
*436 FILLER_0_11_181
*437 FILLER_0_11_193
*438 FILLER_0_11_205
*439 FILLER_0_11_217
*440 FILLER_0_11_223
*441 FILLER_0_11_225
*442 FILLER_0_11_237
*443 FILLER_0_11_249
*444 FILLER_0_11_261
*445 FILLER_0_11_27
*446 FILLER_0_11_273
*447 FILLER_0_11_279
*448 FILLER_0_11_281
*449 FILLER_0_11_293
*450 FILLER_0_11_3
*451 FILLER_0_11_305
*452 FILLER_0_11_317
*453 FILLER_0_11_329
*454 FILLER_0_11_335
*455 FILLER_0_11_337
*456 FILLER_0_11_349
*457 FILLER_0_11_39
*458 FILLER_0_11_51
*459 FILLER_0_11_55
*460 FILLER_0_11_57
*461 FILLER_0_11_69
*462 FILLER_0_11_81
*463 FILLER_0_11_93
*464 FILLER_0_12_109
*465 FILLER_0_12_121
*466 FILLER_0_12_133
*467 FILLER_0_12_139
*468 FILLER_0_12_141
*469 FILLER_0_12_15
*470 FILLER_0_12_153
*471 FILLER_0_12_165
*472 FILLER_0_12_177
*473 FILLER_0_12_189
*474 FILLER_0_12_195
*475 FILLER_0_12_197
*476 FILLER_0_12_209
*477 FILLER_0_12_221
*478 FILLER_0_12_233
*479 FILLER_0_12_245
*480 FILLER_0_12_251
*481 FILLER_0_12_253
*482 FILLER_0_12_265
*483 FILLER_0_12_27
*484 FILLER_0_12_277
*485 FILLER_0_12_289
*486 FILLER_0_12_29
*487 FILLER_0_12_3
*488 FILLER_0_12_301
*489 FILLER_0_12_307
*490 FILLER_0_12_309
*491 FILLER_0_12_321
*492 FILLER_0_12_333
*493 FILLER_0_12_345
*494 FILLER_0_12_41
*495 FILLER_0_12_53
*496 FILLER_0_12_65
*497 FILLER_0_12_77
*498 FILLER_0_12_83
*499 FILLER_0_12_85
*500 FILLER_0_12_97
*501 FILLER_0_13_105
*502 FILLER_0_13_111
*503 FILLER_0_13_113
*504 FILLER_0_13_125
*505 FILLER_0_13_137
*506 FILLER_0_13_149
*507 FILLER_0_13_15
*508 FILLER_0_13_161
*509 FILLER_0_13_167
*510 FILLER_0_13_169
*511 FILLER_0_13_181
*512 FILLER_0_13_193
*513 FILLER_0_13_205
*514 FILLER_0_13_217
*515 FILLER_0_13_223
*516 FILLER_0_13_225
*517 FILLER_0_13_237
*518 FILLER_0_13_249
*519 FILLER_0_13_261
*520 FILLER_0_13_27
*521 FILLER_0_13_273
*522 FILLER_0_13_279
*523 FILLER_0_13_281
*524 FILLER_0_13_293
*525 FILLER_0_13_3
*526 FILLER_0_13_305
*527 FILLER_0_13_317
*528 FILLER_0_13_329
*529 FILLER_0_13_335
*530 FILLER_0_13_337
*531 FILLER_0_13_349
*532 FILLER_0_13_39
*533 FILLER_0_13_51
*534 FILLER_0_13_55
*535 FILLER_0_13_57
*536 FILLER_0_13_69
*537 FILLER_0_13_81
*538 FILLER_0_13_93
*539 FILLER_0_14_109
*540 FILLER_0_14_121
*541 FILLER_0_14_133
*542 FILLER_0_14_139
*543 FILLER_0_14_141
*544 FILLER_0_14_15
*545 FILLER_0_14_153
*546 FILLER_0_14_165
*547 FILLER_0_14_177
*548 FILLER_0_14_189
*549 FILLER_0_14_195
*550 FILLER_0_14_197
*551 FILLER_0_14_209
*552 FILLER_0_14_221
*553 FILLER_0_14_233
*554 FILLER_0_14_245
*555 FILLER_0_14_251
*556 FILLER_0_14_253
*557 FILLER_0_14_265
*558 FILLER_0_14_27
*559 FILLER_0_14_277
*560 FILLER_0_14_289
*561 FILLER_0_14_29
*562 FILLER_0_14_3
*563 FILLER_0_14_301
*564 FILLER_0_14_307
*565 FILLER_0_14_309
*566 FILLER_0_14_321
*567 FILLER_0_14_333
*568 FILLER_0_14_345
*569 FILLER_0_14_41
*570 FILLER_0_14_53
*571 FILLER_0_14_65
*572 FILLER_0_14_77
*573 FILLER_0_14_83
*574 FILLER_0_14_85
*575 FILLER_0_14_97
*576 FILLER_0_15_105
*577 FILLER_0_15_111
*578 FILLER_0_15_113
*579 FILLER_0_15_125
*580 FILLER_0_15_137
*581 FILLER_0_15_149
*582 FILLER_0_15_15
*583 FILLER_0_15_161
*584 FILLER_0_15_167
*585 FILLER_0_15_169
*586 FILLER_0_15_181
*587 FILLER_0_15_193
*588 FILLER_0_15_205
*589 FILLER_0_15_217
*590 FILLER_0_15_223
*591 FILLER_0_15_225
*592 FILLER_0_15_237
*593 FILLER_0_15_249
*594 FILLER_0_15_261
*595 FILLER_0_15_27
*596 FILLER_0_15_273
*597 FILLER_0_15_279
*598 FILLER_0_15_281
*599 FILLER_0_15_293
*600 FILLER_0_15_3
*601 FILLER_0_15_305
*602 FILLER_0_15_317
*603 FILLER_0_15_329
*604 FILLER_0_15_335
*605 FILLER_0_15_337
*606 FILLER_0_15_349
*607 FILLER_0_15_39
*608 FILLER_0_15_51
*609 FILLER_0_15_55
*610 FILLER_0_15_57
*611 FILLER_0_15_69
*612 FILLER_0_15_81
*613 FILLER_0_15_93
*614 FILLER_0_16_109
*615 FILLER_0_16_121
*616 FILLER_0_16_133
*617 FILLER_0_16_139
*618 FILLER_0_16_141
*619 FILLER_0_16_15
*620 FILLER_0_16_153
*621 FILLER_0_16_165
*622 FILLER_0_16_177
*623 FILLER_0_16_189
*624 FILLER_0_16_195
*625 FILLER_0_16_197
*626 FILLER_0_16_209
*627 FILLER_0_16_221
*628 FILLER_0_16_233
*629 FILLER_0_16_245
*630 FILLER_0_16_251
*631 FILLER_0_16_253
*632 FILLER_0_16_265
*633 FILLER_0_16_27
*634 FILLER_0_16_277
*635 FILLER_0_16_289
*636 FILLER_0_16_29
*637 FILLER_0_16_3
*638 FILLER_0_16_301
*639 FILLER_0_16_307
*640 FILLER_0_16_309
*641 FILLER_0_16_321
*642 FILLER_0_16_333
*643 FILLER_0_16_345
*644 FILLER_0_16_41
*645 FILLER_0_16_53
*646 FILLER_0_16_65
*647 FILLER_0_16_77
*648 FILLER_0_16_83
*649 FILLER_0_16_85
*650 FILLER_0_16_97
*651 FILLER_0_17_105
*652 FILLER_0_17_111
*653 FILLER_0_17_113
*654 FILLER_0_17_125
*655 FILLER_0_17_137
*656 FILLER_0_17_149
*657 FILLER_0_17_15
*658 FILLER_0_17_161
*659 FILLER_0_17_167
*660 FILLER_0_17_169
*661 FILLER_0_17_181
*662 FILLER_0_17_193
*663 FILLER_0_17_205
*664 FILLER_0_17_217
*665 FILLER_0_17_223
*666 FILLER_0_17_225
*667 FILLER_0_17_237
*668 FILLER_0_17_249
*669 FILLER_0_17_261
*670 FILLER_0_17_27
*671 FILLER_0_17_273
*672 FILLER_0_17_279
*673 FILLER_0_17_281
*674 FILLER_0_17_293
*675 FILLER_0_17_3
*676 FILLER_0_17_305
*677 FILLER_0_17_317
*678 FILLER_0_17_329
*679 FILLER_0_17_335
*680 FILLER_0_17_337
*681 FILLER_0_17_349
*682 FILLER_0_17_39
*683 FILLER_0_17_51
*684 FILLER_0_17_55
*685 FILLER_0_17_57
*686 FILLER_0_17_69
*687 FILLER_0_17_81
*688 FILLER_0_17_93
*689 FILLER_0_18_109
*690 FILLER_0_18_121
*691 FILLER_0_18_133
*692 FILLER_0_18_139
*693 FILLER_0_18_141
*694 FILLER_0_18_15
*695 FILLER_0_18_153
*696 FILLER_0_18_165
*697 FILLER_0_18_177
*698 FILLER_0_18_189
*699 FILLER_0_18_195
*700 FILLER_0_18_197
*701 FILLER_0_18_209
*702 FILLER_0_18_221
*703 FILLER_0_18_233
*704 FILLER_0_18_245
*705 FILLER_0_18_251
*706 FILLER_0_18_253
*707 FILLER_0_18_265
*708 FILLER_0_18_27
*709 FILLER_0_18_277
*710 FILLER_0_18_289
*711 FILLER_0_18_29
*712 FILLER_0_18_3
*713 FILLER_0_18_301
*714 FILLER_0_18_307
*715 FILLER_0_18_309
*716 FILLER_0_18_321
*717 FILLER_0_18_333
*718 FILLER_0_18_345
*719 FILLER_0_18_41
*720 FILLER_0_18_53
*721 FILLER_0_18_65
*722 FILLER_0_18_77
*723 FILLER_0_18_83
*724 FILLER_0_18_85
*725 FILLER_0_18_97
*726 FILLER_0_19_105
*727 FILLER_0_19_111
*728 FILLER_0_19_113
*729 FILLER_0_19_125
*730 FILLER_0_19_137
*731 FILLER_0_19_149
*732 FILLER_0_19_15
*733 FILLER_0_19_161
*734 FILLER_0_19_167
*735 FILLER_0_19_169
*736 FILLER_0_19_181
*737 FILLER_0_19_193
*738 FILLER_0_19_205
*739 FILLER_0_19_217
*740 FILLER_0_19_223
*741 FILLER_0_19_225
*742 FILLER_0_19_237
*743 FILLER_0_19_249
*744 FILLER_0_19_261
*745 FILLER_0_19_27
*746 FILLER_0_19_273
*747 FILLER_0_19_279
*748 FILLER_0_19_281
*749 FILLER_0_19_293
*750 FILLER_0_19_3
*751 FILLER_0_19_305
*752 FILLER_0_19_317
*753 FILLER_0_19_329
*754 FILLER_0_19_335
*755 FILLER_0_19_337
*756 FILLER_0_19_349
*757 FILLER_0_19_39
*758 FILLER_0_19_51
*759 FILLER_0_19_55
*760 FILLER_0_19_57
*761 FILLER_0_19_69
*762 FILLER_0_19_81
*763 FILLER_0_19_93
*764 FILLER_0_1_105
*765 FILLER_0_1_111
*766 FILLER_0_1_113
*767 FILLER_0_1_125
*768 FILLER_0_1_137
*769 FILLER_0_1_149
*770 FILLER_0_1_15
*771 FILLER_0_1_161
*772 FILLER_0_1_167
*773 FILLER_0_1_169
*774 FILLER_0_1_181
*775 FILLER_0_1_193
*776 FILLER_0_1_205
*777 FILLER_0_1_217
*778 FILLER_0_1_223
*779 FILLER_0_1_225
*780 FILLER_0_1_237
*781 FILLER_0_1_249
*782 FILLER_0_1_261
*783 FILLER_0_1_27
*784 FILLER_0_1_273
*785 FILLER_0_1_279
*786 FILLER_0_1_281
*787 FILLER_0_1_293
*788 FILLER_0_1_3
*789 FILLER_0_1_305
*790 FILLER_0_1_317
*791 FILLER_0_1_329
*792 FILLER_0_1_335
*793 FILLER_0_1_337
*794 FILLER_0_1_349
*795 FILLER_0_1_39
*796 FILLER_0_1_51
*797 FILLER_0_1_55
*798 FILLER_0_1_57
*799 FILLER_0_1_69
*800 FILLER_0_1_81
*801 FILLER_0_1_93
*802 FILLER_0_20_109
*803 FILLER_0_20_121
*804 FILLER_0_20_133
*805 FILLER_0_20_139
*806 FILLER_0_20_141
*807 FILLER_0_20_15
*808 FILLER_0_20_153
*809 FILLER_0_20_165
*810 FILLER_0_20_177
*811 FILLER_0_20_189
*812 FILLER_0_20_195
*813 FILLER_0_20_197
*814 FILLER_0_20_209
*815 FILLER_0_20_221
*816 FILLER_0_20_233
*817 FILLER_0_20_245
*818 FILLER_0_20_251
*819 FILLER_0_20_253
*820 FILLER_0_20_265
*821 FILLER_0_20_27
*822 FILLER_0_20_277
*823 FILLER_0_20_289
*824 FILLER_0_20_29
*825 FILLER_0_20_3
*826 FILLER_0_20_301
*827 FILLER_0_20_307
*828 FILLER_0_20_309
*829 FILLER_0_20_321
*830 FILLER_0_20_333
*831 FILLER_0_20_345
*832 FILLER_0_20_41
*833 FILLER_0_20_53
*834 FILLER_0_20_65
*835 FILLER_0_20_77
*836 FILLER_0_20_83
*837 FILLER_0_20_85
*838 FILLER_0_20_97
*839 FILLER_0_21_105
*840 FILLER_0_21_111
*841 FILLER_0_21_113
*842 FILLER_0_21_125
*843 FILLER_0_21_137
*844 FILLER_0_21_149
*845 FILLER_0_21_15
*846 FILLER_0_21_161
*847 FILLER_0_21_167
*848 FILLER_0_21_169
*849 FILLER_0_21_181
*850 FILLER_0_21_193
*851 FILLER_0_21_205
*852 FILLER_0_21_217
*853 FILLER_0_21_223
*854 FILLER_0_21_225
*855 FILLER_0_21_237
*856 FILLER_0_21_249
*857 FILLER_0_21_261
*858 FILLER_0_21_27
*859 FILLER_0_21_273
*860 FILLER_0_21_279
*861 FILLER_0_21_281
*862 FILLER_0_21_293
*863 FILLER_0_21_3
*864 FILLER_0_21_305
*865 FILLER_0_21_317
*866 FILLER_0_21_329
*867 FILLER_0_21_335
*868 FILLER_0_21_337
*869 FILLER_0_21_349
*870 FILLER_0_21_39
*871 FILLER_0_21_51
*872 FILLER_0_21_55
*873 FILLER_0_21_57
*874 FILLER_0_21_69
*875 FILLER_0_21_81
*876 FILLER_0_21_93
*877 FILLER_0_22_109
*878 FILLER_0_22_121
*879 FILLER_0_22_133
*880 FILLER_0_22_139
*881 FILLER_0_22_141
*882 FILLER_0_22_15
*883 FILLER_0_22_153
*884 FILLER_0_22_165
*885 FILLER_0_22_177
*886 FILLER_0_22_189
*887 FILLER_0_22_195
*888 FILLER_0_22_197
*889 FILLER_0_22_209
*890 FILLER_0_22_221
*891 FILLER_0_22_233
*892 FILLER_0_22_245
*893 FILLER_0_22_251
*894 FILLER_0_22_253
*895 FILLER_0_22_265
*896 FILLER_0_22_27
*897 FILLER_0_22_277
*898 FILLER_0_22_289
*899 FILLER_0_22_29
*900 FILLER_0_22_3
*901 FILLER_0_22_301
*902 FILLER_0_22_307
*903 FILLER_0_22_309
*904 FILLER_0_22_321
*905 FILLER_0_22_333
*906 FILLER_0_22_345
*907 FILLER_0_22_41
*908 FILLER_0_22_53
*909 FILLER_0_22_65
*910 FILLER_0_22_77
*911 FILLER_0_22_83
*912 FILLER_0_22_85
*913 FILLER_0_22_97
*914 FILLER_0_23_104
*915 FILLER_0_23_113
*916 FILLER_0_23_125
*917 FILLER_0_23_137
*918 FILLER_0_23_149
*919 FILLER_0_23_15
*920 FILLER_0_23_160
*921 FILLER_0_23_169
*922 FILLER_0_23_181
*923 FILLER_0_23_193
*924 FILLER_0_23_205
*925 FILLER_0_23_210
*926 FILLER_0_23_222
*927 FILLER_0_23_225
*928 FILLER_0_23_237
*929 FILLER_0_23_245
*930 FILLER_0_23_268
*931 FILLER_0_23_27
*932 FILLER_0_23_281
*933 FILLER_0_23_293
*934 FILLER_0_23_3
*935 FILLER_0_23_305
*936 FILLER_0_23_317
*937 FILLER_0_23_329
*938 FILLER_0_23_335
*939 FILLER_0_23_337
*940 FILLER_0_23_349
*941 FILLER_0_23_39
*942 FILLER_0_23_51
*943 FILLER_0_23_55
*944 FILLER_0_23_57
*945 FILLER_0_23_69
*946 FILLER_0_23_81
*947 FILLER_0_23_93
*948 FILLER_0_23_98
*949 FILLER_0_24_105
*950 FILLER_0_24_115
*951 FILLER_0_24_119
*952 FILLER_0_24_144
*953 FILLER_0_24_15
*954 FILLER_0_24_192
*955 FILLER_0_24_217
*956 FILLER_0_24_243
*957 FILLER_0_24_251
*958 FILLER_0_24_253
*959 FILLER_0_24_265
*960 FILLER_0_24_27
*961 FILLER_0_24_277
*962 FILLER_0_24_285
*963 FILLER_0_24_29
*964 FILLER_0_24_290
*965 FILLER_0_24_3
*966 FILLER_0_24_301
*967 FILLER_0_24_307
*968 FILLER_0_24_309
*969 FILLER_0_24_321
*970 FILLER_0_24_325
*971 FILLER_0_24_329
*972 FILLER_0_24_341
*973 FILLER_0_24_349
*974 FILLER_0_24_41
*975 FILLER_0_24_53
*976 FILLER_0_24_65
*977 FILLER_0_24_77
*978 FILLER_0_24_83
*979 FILLER_0_25_110
*980 FILLER_0_25_113
*981 FILLER_0_25_121
*982 FILLER_0_25_127
*983 FILLER_0_25_136
*984 FILLER_0_25_147
*985 FILLER_0_25_15
*986 FILLER_0_25_153
*987 FILLER_0_25_162
*988 FILLER_0_25_175
*989 FILLER_0_25_187
*990 FILLER_0_25_195
*991 FILLER_0_25_223
*992 FILLER_0_25_228
*993 FILLER_0_25_240
*994 FILLER_0_25_252
*995 FILLER_0_25_27
*996 FILLER_0_25_285
*997 FILLER_0_25_3
*998 FILLER_0_25_335
*999 FILLER_0_25_337
*1000 FILLER_0_25_349
*1001 FILLER_0_25_39
*1002 FILLER_0_25_51
*1003 FILLER_0_25_55
*1004 FILLER_0_25_57
*1005 FILLER_0_25_69
*1006 FILLER_0_25_81
*1007 FILLER_0_25_93
*1008 FILLER_0_25_98
*1009 FILLER_0_26_105
*1010 FILLER_0_26_133
*1011 FILLER_0_26_139
*1012 FILLER_0_26_146
*1013 FILLER_0_26_15
*1014 FILLER_0_26_175
*1015 FILLER_0_26_183
*1016 FILLER_0_26_193
*1017 FILLER_0_26_201
*1018 FILLER_0_26_209
*1019 FILLER_0_26_243
*1020 FILLER_0_26_251
*1021 FILLER_0_26_260
*1022 FILLER_0_26_264
*1023 FILLER_0_26_27
*1024 FILLER_0_26_273
*1025 FILLER_0_26_279
*1026 FILLER_0_26_29
*1027 FILLER_0_26_291
*1028 FILLER_0_26_3
*1029 FILLER_0_26_303
*1030 FILLER_0_26_307
*1031 FILLER_0_26_309
*1032 FILLER_0_26_321
*1033 FILLER_0_26_331
*1034 FILLER_0_26_343
*1035 FILLER_0_26_41
*1036 FILLER_0_26_53
*1037 FILLER_0_26_65
*1038 FILLER_0_26_77
*1039 FILLER_0_26_83
*1040 FILLER_0_27_111
*1041 FILLER_0_27_113
*1042 FILLER_0_27_128
*1043 FILLER_0_27_15
*1044 FILLER_0_27_163
*1045 FILLER_0_27_180
*1046 FILLER_0_27_186
*1047 FILLER_0_27_196
*1048 FILLER_0_27_219
*1049 FILLER_0_27_223
*1050 FILLER_0_27_225
*1051 FILLER_0_27_237
*1052 FILLER_0_27_256
*1053 FILLER_0_27_268
*1054 FILLER_0_27_27
*1055 FILLER_0_27_278
*1056 FILLER_0_27_285
*1057 FILLER_0_27_289
*1058 FILLER_0_27_3
*1059 FILLER_0_27_305
*1060 FILLER_0_27_311
*1061 FILLER_0_27_315
*1062 FILLER_0_27_323
*1063 FILLER_0_27_327
*1064 FILLER_0_27_335
*1065 FILLER_0_27_337
*1066 FILLER_0_27_349
*1067 FILLER_0_27_39
*1068 FILLER_0_27_51
*1069 FILLER_0_27_55
*1070 FILLER_0_27_57
*1071 FILLER_0_27_69
*1072 FILLER_0_27_75
*1073 FILLER_0_27_99
*1074 FILLER_0_28_108
*1075 FILLER_0_28_118
*1076 FILLER_0_28_15
*1077 FILLER_0_28_164
*1078 FILLER_0_28_169
*1079 FILLER_0_28_176
*1080 FILLER_0_28_185
*1081 FILLER_0_28_189
*1082 FILLER_0_28_197
*1083 FILLER_0_28_215
*1084 FILLER_0_28_223
*1085 FILLER_0_28_227
*1086 FILLER_0_28_234
*1087 FILLER_0_28_242
*1088 FILLER_0_28_251
*1089 FILLER_0_28_253
*1090 FILLER_0_28_261
*1091 FILLER_0_28_27
*1092 FILLER_0_28_29
*1093 FILLER_0_28_3
*1094 FILLER_0_28_307
*1095 FILLER_0_28_332
*1096 FILLER_0_28_344
*1097 FILLER_0_28_350
*1098 FILLER_0_28_41
*1099 FILLER_0_28_53
*1100 FILLER_0_28_65
*1101 FILLER_0_28_73
*1102 FILLER_0_28_81
*1103 FILLER_0_28_96
*1104 FILLER_0_29_101
*1105 FILLER_0_29_120
*1106 FILLER_0_29_147
*1107 FILLER_0_29_15
*1108 FILLER_0_29_155
*1109 FILLER_0_29_159
*1110 FILLER_0_29_167
*1111 FILLER_0_29_189
*1112 FILLER_0_29_205
*1113 FILLER_0_29_218
*1114 FILLER_0_29_223
*1115 FILLER_0_29_245
*1116 FILLER_0_29_253
*1117 FILLER_0_29_27
*1118 FILLER_0_29_271
*1119 FILLER_0_29_279
*1120 FILLER_0_29_281
*1121 FILLER_0_29_285
*1122 FILLER_0_29_297
*1123 FILLER_0_29_3
*1124 FILLER_0_29_306
*1125 FILLER_0_29_318
*1126 FILLER_0_29_324
*1127 FILLER_0_29_337
*1128 FILLER_0_29_349
*1129 FILLER_0_29_39
*1130 FILLER_0_29_51
*1131 FILLER_0_29_55
*1132 FILLER_0_29_57
*1133 FILLER_0_29_69
*1134 FILLER_0_29_77
*1135 FILLER_0_2_109
*1136 FILLER_0_2_121
*1137 FILLER_0_2_133
*1138 FILLER_0_2_139
*1139 FILLER_0_2_141
*1140 FILLER_0_2_15
*1141 FILLER_0_2_153
*1142 FILLER_0_2_165
*1143 FILLER_0_2_177
*1144 FILLER_0_2_189
*1145 FILLER_0_2_195
*1146 FILLER_0_2_197
*1147 FILLER_0_2_209
*1148 FILLER_0_2_221
*1149 FILLER_0_2_233
*1150 FILLER_0_2_245
*1151 FILLER_0_2_251
*1152 FILLER_0_2_253
*1153 FILLER_0_2_265
*1154 FILLER_0_2_27
*1155 FILLER_0_2_277
*1156 FILLER_0_2_289
*1157 FILLER_0_2_29
*1158 FILLER_0_2_3
*1159 FILLER_0_2_301
*1160 FILLER_0_2_307
*1161 FILLER_0_2_309
*1162 FILLER_0_2_321
*1163 FILLER_0_2_333
*1164 FILLER_0_2_345
*1165 FILLER_0_2_41
*1166 FILLER_0_2_53
*1167 FILLER_0_2_65
*1168 FILLER_0_2_77
*1169 FILLER_0_2_83
*1170 FILLER_0_2_85
*1171 FILLER_0_2_97
*1172 FILLER_0_30_103
*1173 FILLER_0_30_113
*1174 FILLER_0_30_119
*1175 FILLER_0_30_123
*1176 FILLER_0_30_131
*1177 FILLER_0_30_144
*1178 FILLER_0_30_15
*1179 FILLER_0_30_166
*1180 FILLER_0_30_172
*1181 FILLER_0_30_193
*1182 FILLER_0_30_205
*1183 FILLER_0_30_227
*1184 FILLER_0_30_239
*1185 FILLER_0_30_251
*1186 FILLER_0_30_27
*1187 FILLER_0_30_29
*1188 FILLER_0_30_296
*1189 FILLER_0_30_3
*1190 FILLER_0_30_309
*1191 FILLER_0_30_337
*1192 FILLER_0_30_349
*1193 FILLER_0_30_41
*1194 FILLER_0_30_53
*1195 FILLER_0_30_65
*1196 FILLER_0_30_77
*1197 FILLER_0_30_83
*1198 FILLER_0_30_85
*1199 FILLER_0_30_93
*1200 FILLER_0_31_106
*1201 FILLER_0_31_133
*1202 FILLER_0_31_145
*1203 FILLER_0_31_15
*1204 FILLER_0_31_157
*1205 FILLER_0_31_175
*1206 FILLER_0_31_181
*1207 FILLER_0_31_185
*1208 FILLER_0_31_193
*1209 FILLER_0_31_202
*1210 FILLER_0_31_225
*1211 FILLER_0_31_238
*1212 FILLER_0_31_246
*1213 FILLER_0_31_250
*1214 FILLER_0_31_27
*1215 FILLER_0_31_272
*1216 FILLER_0_31_281
*1217 FILLER_0_31_290
*1218 FILLER_0_31_3
*1219 FILLER_0_31_305
*1220 FILLER_0_31_311
*1221 FILLER_0_31_316
*1222 FILLER_0_31_328
*1223 FILLER_0_31_340
*1224 FILLER_0_31_348
*1225 FILLER_0_31_39
*1226 FILLER_0_31_51
*1227 FILLER_0_31_55
*1228 FILLER_0_31_57
*1229 FILLER_0_31_69
*1230 FILLER_0_31_81
*1231 FILLER_0_31_93
*1232 FILLER_0_32_109
*1233 FILLER_0_32_133
*1234 FILLER_0_32_139
*1235 FILLER_0_32_148
*1236 FILLER_0_32_15
*1237 FILLER_0_32_179
*1238 FILLER_0_32_186
*1239 FILLER_0_32_194
*1240 FILLER_0_32_204
*1241 FILLER_0_32_212
*1242 FILLER_0_32_216
*1243 FILLER_0_32_225
*1244 FILLER_0_32_234
*1245 FILLER_0_32_248
*1246 FILLER_0_32_253
*1247 FILLER_0_32_261
*1248 FILLER_0_32_265
*1249 FILLER_0_32_27
*1250 FILLER_0_32_287
*1251 FILLER_0_32_29
*1252 FILLER_0_32_292
*1253 FILLER_0_32_3
*1254 FILLER_0_32_309
*1255 FILLER_0_32_323
*1256 FILLER_0_32_347
*1257 FILLER_0_32_41
*1258 FILLER_0_32_53
*1259 FILLER_0_32_65
*1260 FILLER_0_32_77
*1261 FILLER_0_32_83
*1262 FILLER_0_32_85
*1263 FILLER_0_32_97
*1264 FILLER_0_33_102
*1265 FILLER_0_33_108
*1266 FILLER_0_33_133
*1267 FILLER_0_33_15
*1268 FILLER_0_33_152
*1269 FILLER_0_33_163
*1270 FILLER_0_33_167
*1271 FILLER_0_33_174
*1272 FILLER_0_33_186
*1273 FILLER_0_33_190
*1274 FILLER_0_33_214
*1275 FILLER_0_33_221
*1276 FILLER_0_33_238
*1277 FILLER_0_33_251
*1278 FILLER_0_33_259
*1279 FILLER_0_33_27
*1280 FILLER_0_33_271
*1281 FILLER_0_33_279
*1282 FILLER_0_33_3
*1283 FILLER_0_33_301
*1284 FILLER_0_33_309
*1285 FILLER_0_33_325
*1286 FILLER_0_33_333
*1287 FILLER_0_33_337
*1288 FILLER_0_33_349
*1289 FILLER_0_33_39
*1290 FILLER_0_33_51
*1291 FILLER_0_33_55
*1292 FILLER_0_33_57
*1293 FILLER_0_33_69
*1294 FILLER_0_33_77
*1295 FILLER_0_34_118
*1296 FILLER_0_34_130
*1297 FILLER_0_34_134
*1298 FILLER_0_34_15
*1299 FILLER_0_34_150
*1300 FILLER_0_34_158
*1301 FILLER_0_34_163
*1302 FILLER_0_34_177
*1303 FILLER_0_34_189
*1304 FILLER_0_34_195
*1305 FILLER_0_34_197
*1306 FILLER_0_34_209
*1307 FILLER_0_34_221
*1308 FILLER_0_34_229
*1309 FILLER_0_34_238
*1310 FILLER_0_34_250
*1311 FILLER_0_34_253
*1312 FILLER_0_34_261
*1313 FILLER_0_34_269
*1314 FILLER_0_34_27
*1315 FILLER_0_34_281
*1316 FILLER_0_34_29
*1317 FILLER_0_34_295
*1318 FILLER_0_34_3
*1319 FILLER_0_34_307
*1320 FILLER_0_34_309
*1321 FILLER_0_34_337
*1322 FILLER_0_34_349
*1323 FILLER_0_34_41
*1324 FILLER_0_34_53
*1325 FILLER_0_34_65
*1326 FILLER_0_34_77
*1327 FILLER_0_34_96
*1328 FILLER_0_35_102
*1329 FILLER_0_35_108
*1330 FILLER_0_35_121
*1331 FILLER_0_35_129
*1332 FILLER_0_35_144
*1333 FILLER_0_35_15
*1334 FILLER_0_35_152
*1335 FILLER_0_35_166
*1336 FILLER_0_35_169
*1337 FILLER_0_35_184
*1338 FILLER_0_35_214
*1339 FILLER_0_35_222
*1340 FILLER_0_35_251
*1341 FILLER_0_35_255
*1342 FILLER_0_35_27
*1343 FILLER_0_35_275
*1344 FILLER_0_35_279
*1345 FILLER_0_35_281
*1346 FILLER_0_35_3
*1347 FILLER_0_35_302
*1348 FILLER_0_35_312
*1349 FILLER_0_35_324
*1350 FILLER_0_35_337
*1351 FILLER_0_35_349
*1352 FILLER_0_35_39
*1353 FILLER_0_35_51
*1354 FILLER_0_35_55
*1355 FILLER_0_35_57
*1356 FILLER_0_35_69
*1357 FILLER_0_35_90
*1358 FILLER_0_36_106
*1359 FILLER_0_36_118
*1360 FILLER_0_36_149
*1361 FILLER_0_36_15
*1362 FILLER_0_36_165
*1363 FILLER_0_36_176
*1364 FILLER_0_36_188
*1365 FILLER_0_36_211
*1366 FILLER_0_36_217
*1367 FILLER_0_36_231
*1368 FILLER_0_36_239
*1369 FILLER_0_36_249
*1370 FILLER_0_36_261
*1371 FILLER_0_36_27
*1372 FILLER_0_36_270
*1373 FILLER_0_36_282
*1374 FILLER_0_36_288
*1375 FILLER_0_36_29
*1376 FILLER_0_36_293
*1377 FILLER_0_36_3
*1378 FILLER_0_36_305
*1379 FILLER_0_36_327
*1380 FILLER_0_36_339
*1381 FILLER_0_36_41
*1382 FILLER_0_36_53
*1383 FILLER_0_36_65
*1384 FILLER_0_36_77
*1385 FILLER_0_36_85
*1386 FILLER_0_36_94
*1387 FILLER_0_37_116
*1388 FILLER_0_37_128
*1389 FILLER_0_37_148
*1390 FILLER_0_37_15
*1391 FILLER_0_37_163
*1392 FILLER_0_37_167
*1393 FILLER_0_37_169
*1394 FILLER_0_37_174
*1395 FILLER_0_37_182
*1396 FILLER_0_37_188
*1397 FILLER_0_37_205
*1398 FILLER_0_37_219
*1399 FILLER_0_37_223
*1400 FILLER_0_37_251
*1401 FILLER_0_37_259
*1402 FILLER_0_37_27
*1403 FILLER_0_37_281
*1404 FILLER_0_37_3
*1405 FILLER_0_37_330
*1406 FILLER_0_37_337
*1407 FILLER_0_37_349
*1408 FILLER_0_37_39
*1409 FILLER_0_37_51
*1410 FILLER_0_37_55
*1411 FILLER_0_37_57
*1412 FILLER_0_37_69
*1413 FILLER_0_37_91
*1414 FILLER_0_38_108
*1415 FILLER_0_38_113
*1416 FILLER_0_38_125
*1417 FILLER_0_38_133
*1418 FILLER_0_38_14
*1419 FILLER_0_38_158
*1420 FILLER_0_38_162
*1421 FILLER_0_38_166
*1422 FILLER_0_38_169
*1423 FILLER_0_38_18
*1424 FILLER_0_38_185
*1425 FILLER_0_38_190
*1426 FILLER_0_38_197
*1427 FILLER_0_38_207
*1428 FILLER_0_38_219
*1429 FILLER_0_38_22
*1430 FILLER_0_38_223
*1431 FILLER_0_38_225
*1432 FILLER_0_38_237
*1433 FILLER_0_38_241
*1434 FILLER_0_38_248
*1435 FILLER_0_38_257
*1436 FILLER_0_38_278
*1437 FILLER_0_38_297
*1438 FILLER_0_38_3
*1439 FILLER_0_38_302
*1440 FILLER_0_38_317
*1441 FILLER_0_38_32
*1442 FILLER_0_38_334
*1443 FILLER_0_38_343
*1444 FILLER_0_38_38
*1445 FILLER_0_38_42
*1446 FILLER_0_38_46
*1447 FILLER_0_38_50
*1448 FILLER_0_38_54
*1449 FILLER_0_38_57
*1450 FILLER_0_38_62
*1451 FILLER_0_38_66
*1452 FILLER_0_38_70
*1453 FILLER_0_38_85
*1454 FILLER_0_38_92
*1455 FILLER_0_3_105
*1456 FILLER_0_3_111
*1457 FILLER_0_3_113
*1458 FILLER_0_3_125
*1459 FILLER_0_3_137
*1460 FILLER_0_3_149
*1461 FILLER_0_3_15
*1462 FILLER_0_3_161
*1463 FILLER_0_3_167
*1464 FILLER_0_3_169
*1465 FILLER_0_3_181
*1466 FILLER_0_3_193
*1467 FILLER_0_3_205
*1468 FILLER_0_3_217
*1469 FILLER_0_3_223
*1470 FILLER_0_3_225
*1471 FILLER_0_3_237
*1472 FILLER_0_3_249
*1473 FILLER_0_3_261
*1474 FILLER_0_3_27
*1475 FILLER_0_3_273
*1476 FILLER_0_3_279
*1477 FILLER_0_3_281
*1478 FILLER_0_3_293
*1479 FILLER_0_3_3
*1480 FILLER_0_3_305
*1481 FILLER_0_3_317
*1482 FILLER_0_3_329
*1483 FILLER_0_3_335
*1484 FILLER_0_3_337
*1485 FILLER_0_3_349
*1486 FILLER_0_3_39
*1487 FILLER_0_3_51
*1488 FILLER_0_3_55
*1489 FILLER_0_3_57
*1490 FILLER_0_3_69
*1491 FILLER_0_3_81
*1492 FILLER_0_3_93
*1493 FILLER_0_4_109
*1494 FILLER_0_4_121
*1495 FILLER_0_4_133
*1496 FILLER_0_4_139
*1497 FILLER_0_4_141
*1498 FILLER_0_4_15
*1499 FILLER_0_4_153
*1500 FILLER_0_4_165
*1501 FILLER_0_4_177
*1502 FILLER_0_4_189
*1503 FILLER_0_4_195
*1504 FILLER_0_4_197
*1505 FILLER_0_4_209
*1506 FILLER_0_4_221
*1507 FILLER_0_4_233
*1508 FILLER_0_4_245
*1509 FILLER_0_4_251
*1510 FILLER_0_4_253
*1511 FILLER_0_4_265
*1512 FILLER_0_4_27
*1513 FILLER_0_4_277
*1514 FILLER_0_4_289
*1515 FILLER_0_4_29
*1516 FILLER_0_4_3
*1517 FILLER_0_4_301
*1518 FILLER_0_4_307
*1519 FILLER_0_4_309
*1520 FILLER_0_4_321
*1521 FILLER_0_4_333
*1522 FILLER_0_4_345
*1523 FILLER_0_4_41
*1524 FILLER_0_4_53
*1525 FILLER_0_4_65
*1526 FILLER_0_4_77
*1527 FILLER_0_4_83
*1528 FILLER_0_4_85
*1529 FILLER_0_4_97
*1530 FILLER_0_5_105
*1531 FILLER_0_5_111
*1532 FILLER_0_5_113
*1533 FILLER_0_5_125
*1534 FILLER_0_5_137
*1535 FILLER_0_5_149
*1536 FILLER_0_5_15
*1537 FILLER_0_5_161
*1538 FILLER_0_5_167
*1539 FILLER_0_5_169
*1540 FILLER_0_5_181
*1541 FILLER_0_5_193
*1542 FILLER_0_5_205
*1543 FILLER_0_5_217
*1544 FILLER_0_5_223
*1545 FILLER_0_5_225
*1546 FILLER_0_5_237
*1547 FILLER_0_5_249
*1548 FILLER_0_5_261